<?xml version="1.0" encoding="UTF-8"?>

<!-- generated on Wed Feb  6 15:52:29 2019 by Eclipse SUMO duarouter Version 1.1.0
<configuration xmlns:xsi="http://www.w3.org/2001/XMLSchema-instance" xsi:noNamespaceSchemaLocation="http://sumo.dlr.de/xsd/duarouterConfiguration.xsd">

    <input>
        <net-file value="/usr/local/Cellar/sumo/1.1.0/share/sumo/tools/2019-02-06-15-51-49/osm.net.xml"/>
        <route-files value="/usr/local/Cellar/sumo/1.1.0/share/sumo/tools/2019-02-06-15-51-49/osm.truck.trips.xml"/>
    </input>

    <output>
        <output-file value="/usr/local/Cellar/sumo/1.1.0/share/sumo/tools/2019-02-06-15-51-49/osm.truck.rou.xml"/>
        <alternatives-output value="/usr/local/Cellar/sumo/1.1.0/share/sumo/tools/2019-02-06-15-51-49/osm.truck.rou.alt.xml"/>
    </output>

    <time>
        <begin value="0"/>
        <end value="3600.0"/>
    </time>

    <report>
        <no-warnings value="true"/>
        <ignore-errors value="true"/>
        <no-step-log value="true"/>
    </report>

</configuration>
-->

<routes xmlns:xsi="http://www.w3.org/2001/XMLSchema-instance" xsi:noNamespaceSchemaLocation="http://sumo.dlr.de/xsd/routes_file.xsd">
    <vType id="truck_truck" vClass="truck"/>
    <vehicle id="truck0" type="truck_truck" depart="0.00" departLane="best">
        <route edges="25407366 26949920 5009104#1 30372486 330344155 190601547 216122812#0 23201600#0 23201600#1 23201600#2 23201600#3 23201600#4 23201600#5 23201600#6 23201600#7 23201600#8 23201600#9 23201600#10 23201600#11 23201600#12 144870968#0 141179035#0 141179035#1 141179035#2 141179035#3 141179035#4 141179035#5 141179035#6 141179035#7 141179035#8 141179035#9 141179035#10 141179035#11 141179035#12 141179035#13 141179036#0 141179036#1 141179036#2 -141179036#2"/>
    </vehicle>
    <vehicle id="truck2" type="truck_truck" depart="4.12" departLane="best">
        <route edges="333891065#0 333891065#1 333891065#3 179060064#0 179060064#1 188228392 190465753#0 26961484 178064081 192027797 190465759 21521128 192029053 153147529#1 377833913#1 26949916 190586232 190586255 645338237 8508652 645338235 188822506#0 188822506#1 645338233 235536382 315771482 645338239 22761468#3 22761468#4 25501512 31027837#0 31027837#2 31027838#0"/>
    </vehicle>
    <vehicle id="truck3" type="truck_truck" depart="6.18" departLane="best">
        <route edges="517998600 460573535#1 517031505 609032935 627882342 627882349 517031506#0 645338232#0 645338232#1 645338233 235536382 315771482 645338239 151163917#1 3127157 190601551 448984427 25407366 26949920 5009104#1 5009104#2 5009104#4 190465756 40288762 330344153 40288819 -190601538"/>
    </vehicle>
    <vehicle id="truck4" type="truck_truck" depart="8.24" departLane="best">
        <route edges="151163917#1 3127157 190601551 448984427 25407366 26949920 5009104#1 30372486 330344155 190601547 216122812#0 23201600#0 23201600#1 23201600#2 23201600#3 23201600#4 23201600#5 23201600#6 23201600#7 23201600#8 23201600#9 23201600#10 23201600#11 23201600#12 53436293 53721850 -141261874#2 -141261874#1 -141261874#0"/>
    </vehicle>
    <vehicle id="truck5" type="truck_truck" depart="10.30" departLane="best">
        <route edges="-460787688#0 463057022#4 460787688#1 460787688#2 460787688#3 460787688#4 460787688#5 460787688#6 654049725 543059990#0 -576410785 -576410787 -161413804 640522476 38781032 190586232"/>
    </vehicle>
    <vehicle id="truck6" type="truck_truck" depart="12.35" departLane="best">
        <route edges="-141179035#5 -141179035#4 -141179035#3 -141179035#2 -141179035#1 -141179035#0 144870968#6 144870968#7 144870968#8 144870968#9 144870968#10 144870968#11 53436020 4928828#1 132032333 194028632 40288819 40288842#1 8505182 333902146 190601549 333902153 192029053 153147529#1 377833913#1 144871320#0 -640522476 161413804 576410787 431576782 -543059990#0 -654049725 -541386221#1 -541386221#0 -311903943 -431576781#1 -431576781#0 -431576780"/>
    </vehicle>
    <vehicle id="truck7" type="truck_truck" depart="14.41" departLane="best">
        <route edges="25501955#0 25501955#1 370610344 460573535#0 460573535#1 460573536 370610341 400216393#0 400216393#1 516884625 516884626 516884623 23505459 31028439 516884620 -516892195 -32752621 -129273989 -351700501 161303910 246109025#1 444316122#0 444316122#1 -543059990#0 -654049725 -541386221#1 -541386221#0 -311903943 -431576781#1 -431576781#0 -431576780 -463057020 232103860#0 463057021 463057026 463057027#1 -307541272#2 -307541272#1 606439155 314405033#0 314405033#1 606439158 258130590#0 258130590#2 220387886 208440384 525949279 606439152 161303905#0 463670811#1 463670811#2 606439138 606439135#0 606439135#1 554713070 554706401#0 554706401#1 152813965#0 152813986 24019672 152813977#1 8320141#1 23165590#0 -23165590#0 22700416#0 22700416#1 -22701043#3 -22701043#2 -22701043#1 22701043#1"/>
    </vehicle>
    <vehicle id="truck8" type="truck_truck" depart="16.47" departLane="best">
        <route edges="-460787688#3 460787688#3 460787688#4 460787688#5 460787688#6 654049725 543059990#0 -576410785 -576410787 -161413804 -188791147 -188791146#2 -188791146#1 -188791146#0 -25407493#1 -25407493#0 151157096#0 26949920 5009104#1 5009104#2 5009104#4 190465756 40288762 330344153 40288819 23201699"/>
    </vehicle>
    <vehicle id="truck10" type="truck_truck" depart="20.59" departLane="best">
        <route edges="141179035#13 -141179035#13 -141179035#12 -141179035#11 -141179035#10 -141179035#9 -141179035#8 -141179035#7 -141179035#6 -141179035#5 -141179035#4 -141179035#3 -141179035#2 -141179035#1 -141179035#0 144870968#6 144870968#7 144870968#8 144870968#9 144870968#10 144870968#11 53436020 4928828#1 646033701 216122814#0 216122814#1 190465810 330344157 185992233 264963988#0 572415630 53436021 30451267 25469048#1 631613582 631613581 625856813#0 179060068 631613577 631613576 625856812 333891064 3042238#0 3042238#1 3042238#2 -3042238#2"/>
    </vehicle>
    <vehicle id="truck12" type="truck_truck" depart="24.71" departLane="best" departSpeed="max">
        <route edges="-190465775#1 -190465775#0 -190465779#2 -190465779#1 -190465779#0 190465772 8496681#1 24717289 190465763 53436021 30451267 25469048#1 631613582 631613581 625856813#0 30616382 189307628#0 40287739#1 189307622 189307625 30412261 23159360#1 23159360#3 23159360#4 333507774#0 333507774#1 143586217 188228391 188228383 143586213#1 143586213#2 143586213#3 179056989 42772469#1 181361656#0 181361656#2 181361656#3 142944253#2 142944283 142944421#0 142944421#1 188015326 23138735#0 450274067 46239724 152176404#1 23052411#0 23052411#1 60578527 121708051#0 121708051#1 121708051#3 48344707#2 152813966 25444569#0 395272650#1 9702432#0 -381540198#1 -554713073 -554713074 83075269#2 -307556942 27471775#0 27471775#1 188476880#0 188476880#1 188476880#2 -217554187#1"/>
    </vehicle>
    <vehicle id="truck13" type="truck_truck" depart="26.77" departLane="best">
        <route edges="48344707#2 152813966 25444569#0 395272650#1 9702432#0 -381540198#1 -554713073 -554713074 83075269#2 -307556942 27471775#0 27471775#1 188476880#0 245296561#1"/>
    </vehicle>
    <vehicle id="truck14" type="truck_truck" depart="28.83" departLane="best">
        <route edges="206628174#1 25501955#0 25501955#1 370610344 460573535#0 460573535#1 517031505 609032935 627882342 627882349 517031506#0 645338232#0 645338232#1 645338233 235536382 315771482 645338239 151163917#1 3127157 190601551 448984427 25407366 26949920 5009104#1 5009104#2 5009104#4 190465756 190465770#0 26961514 185992233 264963988#0 572415630 26961484 178064081 192027797 190465759 21521128 192029053 153147529#1 656299984#1"/>
    </vehicle>
    <vehicle id="truck16" type="truck_truck" depart="32.95" departLane="best">
        <route edges="463057022#0 -463057022#0 463057021 463057026 463057027#1 -307541272#2 -307541272#1 606439155 314405033#0 314405033#1 606439158 220387889#0 220387889#1 525949274 220387887#0 220387887#1 220387887#2 220387887#5 220387887#6 654708419 239479777 239479767#0 48344707#1 48344707#2 152813966 25444569#0"/>
    </vehicle>
    <vehicle id="truck18" type="truck_truck" depart="37.06" departLane="best">
        <route edges="31027837#0 -31027837#0 -624397555 -22761468#4 -22761468#3 151163917#1 3127157 190601551 448984427 25407366 26949920 5009104#1 5009104#2 5009104#4 190465756 190465770#0 26961514 185992233 264963988#0 572415630 53436021 30451267 25469048#1 631613582 631613581 625856813#0 30616382 189307628#0 40287739#1 189307622 189307625 30412261 -25245659 -143586355#6 -143586355#5 -143586355#4 -143586355#3 -143586355#2"/>
    </vehicle>
    <vehicle id="truck20" type="truck_truck" depart="41.18" departLane="best" departSpeed="max">
        <route edges="-188473746 141137047#2 141137047#3 -152813983 20297117 355309979 448979126 654708414 38563905 -21591353#1 -21591353#0 -604905865#1 -604905865#0 -188690103 53721857 188228388 188228389 188228381#0 188228390 36268330#0 36268330#1 188228382 188228387#0 179060064#0 179060064#1 188228392 190465753#0 26961484 8484620 53721854 190465815 190601545 -40288842#1 -190601538 -194028632 194028631 194028630 216122812#0 23201600#0 23201600#1 23201600#2 23201600#3 23201600#4 23201600#5 23201600#6 23201600#7 23201600#8 23201600#9 23201600#10 23201600#11 23201600#12 53436293 53721850 -53721850"/>
    </vehicle>
    <vehicle id="truck21" type="truck_truck" depart="43.24" departLane="best">
        <route edges="-190581793#0 190581793#0 190581793#1 21594233#1 21594233#2 21594233#3 21594233#4 21594233#5 333890926 40287739#1 189307622 189307625 30412261 23159360#1 23159360#3 23159360#4 333507774#0 333507774#1 143586217 188228391 188228383 143586213#1 143586213#2 143586213#3 179056989 42772469#1 181361656#0 181361656#2 181361656#3 142944253#2 142944283 142944421#0 142944421#1 188015326 23138735#0 450274067 46239724 152176404#1 23052411#0 23052411#1 -25561006 -152176405#0 -121708075 -9897177"/>
    </vehicle>
    <vehicle id="truck22" type="truck_truck" depart="45.30" departLane="best">
        <route edges="25400473#1 -25400473#1 -25400480 -9780341#1 -9780341#0 152813977#1 8320141#1 23165590#0 23165590#1 228186366#0 228186366#1 228186366#2 43145613#0 43145613#1 43145613#2 184627082#1 142944558 188015329 188015330#1 142944258 43145614#0 143586195#0 143586195#1 143586333 118756784 190581795 143586334#0 143586334#1 143586355#0 143586355#1 143586355#2 143586355#3 143586355#4 143586355#5 143586355#6 10605378 23159360#1 23159360#3 23159360#4 333507774#0 333507774#1 143586217 188228391 188228383 143586213#1 143586213#2 143586213#3"/>
    </vehicle>
    <vehicle id="truck23" type="truck_truck" depart="47.36" departLane="best">
        <route edges="142944253#2 142944283 142944421#0 142944421#1 188015326 23138735#0 450274067 46239724 152176404#1 554713067 152176400#2 554713068#0 60578547#1 604905863#0 26949512#1 123342665#1 123342665#3 123342665#4 208440383 244270739#0 244270739#1 244270739#2 244270739#3 562191406#0 307541272#1 307541272#2 463057029 220387891#0 220387891#1 463057018 463057022#0 463057022#1 463057022#2 463057022#3 463057022#4 460787688#1 -460787688#1"/>
    </vehicle>
    <vehicle id="truck24" type="truck_truck" depart="49.42" departLane="best">
        <route edges="-554713067 -152176404#1 -46239724 -450274067 -23138735#0 142944424 188015327#0 43145614#0 143586195#0 143586195#1 143586318#0 637815817#0 637815817#2 637815817#3 637815817#4 637815817#6 637815817#7 30412260 23190865 53721857 188228388 188228389 188228381#0 188228390 36268330#0 36268330#1 188228382 188228387#0 179060064#0 179060064#1 188228392 190465753#0 26961484 178064081 192027797 190465759 21521128 192029053 153147529#1 377833913#1 26949916 190586232 190586255 645338237 8508652 645338235 645338236#0 645338236#1 645338229 460573525 627882342 627882349"/>
    </vehicle>
    <vehicle id="truck25" type="truck_truck" depart="51.48" departLane="best" departSpeed="max">
        <route edges="25501626 -31027837#2 -31027837#0 -624397555 -22761468#4 -22761468#3 151163917#1 3127157 190601551 448984427 151157099 38837206 25407493#0 25407493#1 188791146#0 188791146#1 188791146#2 188791147 161413804 576410787 431576782 -543059990#0 -654049725 -541386221#1 -541386221#0 -311903943 -431576781#1 -431576781#0 -431576780 -463057020 232103860#0 463057021 463057026 463057027#1 -307541272#2 -307541272#1 606439155 314405033#0 314405033#1 606439158 220387889#0 220387889#1 525949274 220387887#0 220387887#1 220387887#2 220387887#5 220387887#6 141137046#1 141137046#3 249741911#0"/>
    </vehicle>
    <vehicle id="truck26" type="truck_truck" depart="53.54" departLane="best" departSpeed="max">
        <route edges="-33041313#1 -33041313#0 188228394#3 188228394#5 188228394#8 188228391 188228383 143586213#1 143586213#2 143586213#3 179056989 42772469#1 181361656#0 181361656#2 142944295#2 188015324#0 143586195#0 143586195#1 143586318#0 637815817#0 637815817#2 637815817#3 637815817#4 637815817#6 637815817#7 30412260 23190865 53721857 188228388 188228389 188228381#0 188228390 36268330#0 36268330#1 188228382 188228387#0 179060064#0 179060064#1 188228392 190465753#0 26961484 178064081 192027797 190465759 21521128 192029053 153147529#1 377833913#1 26949916 190586232 190586255 645338237 8508652 645338235 645338236#0 645338236#1 645338229 460573525 518001971 370610341 206628174#0 206628174#1 516884630 -516884629 -516884628 -174302038 516884631 174302039#0 516884641#0 471566756#0 -471566758 -516884642 333396048#0 333396048#1 349349451"/>
    </vehicle>
    <vehicle id="truck27" type="truck_truck" depart="55.59" departLane="best">
        <route edges="-31027837#0 -624397555 -22761468#4 -22761468#3 151163917#1 3127157 190601551 448984427 25407366 26949920 5009104#1 5009104#2 5009104#4 190465756 190465770#0 26961514 185992233 264963988#0 572415630 53436021 30451267 25469048#1 631613582 631613581 625856813#0 30616382 189307628#0 40287739#1 189307622 189307625 30412261 23159360#1 23159360#3 23159360#4 333507774#0 333507774#1 143586217 188228391 188228383 143586213#1 143586213#2 143586213#3 179056989 42772469#1 181361656#0 181361656#2 142944295#2 188015324#0 143586195#0 143586195#1 143586333 118756784 190581795 143586334#0"/>
    </vehicle>
    <vehicle id="truck28" type="truck_truck" depart="57.65" departLane="best">
        <route edges="217558040 -217558040 123342665#1 123342665#3 123342665#4 208440383 244270739#0 244270739#1 244270739#2 244270739#3 562191406#0 307541272#1 307541272#2 463057029 220387891#0 220387891#1 463057018 463057022#0 463057022#1 463057022#2 463057022#3 463057022#4 460787688#1 460787688#2 460787688#3 460787688#4 460787688#5 460787688#6 654049725 543059990#0 451120809#2 451120809#3 463057277 584853313#1 368267186#0 368267186#1 351700501 129273989 32752621 516892195 4272708 516884618#0 516884618#1 516884619 48344573#0 48344573#1 -516884626 516884626 516884623 23505459 31028439"/>
    </vehicle>
    <vehicle id="truck29" type="truck_truck" depart="59.71" departLane="best" departSpeed="max">
        <route edges="47854310 193847534#1 554713072 83075275#0 83075275#2 60578532#1 554713069 60578531#1 -554713067 -152176404#1 -46239724 -450274067 -23138735#0 142944424 188015327#0 43145614#0 143586195#0 143586195#1 143586333 118756784 190581795 143586334#0 143586334#1 143586355#0 143586355#1 143586355#2 143586355#3 143586355#4 143586355#5 143586355#6 10605378 23159360#1 23159360#3 23159360#4 333507774#0 333507774#1 143586217 188228391 188228383 143586213#1 143586213#2 143586213#3 23138318#1 428817400#1"/>
    </vehicle>
    <vehicle id="truck30" type="truck_truck" depart="61.77" departLane="best" departSpeed="max">
        <route edges="-46102597 188228394#3 188228394#5 188228394#8 188228391 188228383 143586213#1 143586213#2 143586213#3 179056989 42772469#1 181361656#0 181361656#2 142944295#2 188015324#0 143586195#0 143586195#1 143586318#0 637815817#0 637815817#2 637815817#3 637815817#4 637815817#6 637815817#7 30412260 23190865 53721857 188228388 188228389 188228381#0 188228390 36268330#0 36268330#1 188228382 188228387#0 179060064#0 179060064#1 188228392 190465753#0 26961484 8484620 53721854 190465815 190601545 -40288842#1 -190601538 -194028632 194028631 194028630 216122812#0 -53436020 141265297#1 141265297#2 -141263264#1 -141263264#0"/>
    </vehicle>
    <vehicle id="truck31" type="truck_truck" depart="63.83" departLane="best">
        <route edges="118756784 190581795 143586334#0 143586334#1 143586355#0 143586355#1 143586355#2 143586355#3 143586355#4 143586355#5 143586355#6 10605378 23159360#1 23159360#3 23159360#4 333507774#0 333507774#1 143586217 188228391 188228383 143586206 23165591#0 23165589#0 23165589#1 -228186366#2 -228186366#1 -228186366#0 32958574 656676190 656676189 -8320141#1"/>
    </vehicle>
    <vehicle id="truck32" type="truck_truck" depart="65.89" departLane="best" departSpeed="max">
        <route edges="-45729831#2 -22911254#1 -22911254#0 606439133 142944231 659691578 606439134 458542845#0 24438744#1 24438744#2 24438744#3 184627082#0 184627082#1 142944558 188015329 188015330#1 142944258 43145614#0 143586195#0 143586195#1 143586318#0 637815817#0 637815817#2"/>
    </vehicle>
    <vehicle id="truck33" type="truck_truck" depart="67.95" departLane="best">
        <route edges="516884623 23505459 31028440 48344573#0 48344573#1 -516884626 -516884625 180326068#0 25501955#0 25501955#1 370610344 460573535#0 460573535#1 517031505 609032935 627882342 627882349 517031506#0 645338232#0 645338232#1 645338233 235536382 315771482 645338239 151163917#1 3127157 190601551 448984427 25407366 26949920 5009104#1 30372486 330344155 190601547 216122812#0 23201600#0 23201600#1 23201600#2 23201600#3 23201600#4 23201600#5 23201600#6 23201600#7 23201600#8 23201600#9 23201600#10 23201600#11 23201600#12 144870968#0 141179035#0 141179035#1 141179035#2 141179035#3 141179035#4 141179035#5 141179035#6 141179035#7 141179035#8 141179035#9 141179035#10 141179035#11 141179035#12 141179035#13 141179035#14 141179035#15 141179035#16"/>
    </vehicle>
    <vehicle id="truck34" type="truck_truck" depart="70.01" departLane="best">
        <route edges="25502921#1 25502921#2 25502921#3 25502921#4 25502921#5 25502942#2 469768614 480045336 517998600 460573535#1 517031505 609032935 627882342 627882349 517031506#0 645338232#0 645338232#1 645338233 235536382 315771482 645338239 151163917#1 3127157 190601551 448984427 25407366 26949920 5009104#1 5009104#2 5009104#4 190465756 190465770#0 26961514 185992233 190465757 93762556#0 93762556#1 190465787 190465797#0 190465797#1 190465785#0 146482573#0 146482573#2 146482573#3"/>
    </vehicle>
    <vehicle id="truck35" type="truck_truck" depart="72.07" departLane="best">
        <route edges="584225675 493493233 -204552620 204552608#1 444316122#1 -543059990#0 -654049725 -541386221#1 -541386221#0 -311903943 -431576781#1 -431576781#0 -431576780 -463057020 232103860#0 463057021 463057026 463057027#1 -307541272#2 -307541272#1 606439155 314405033#0 314405033#1 606439158 258130590#0 258130590#2 220387886 208440384 525949279 606439152 161303905#0 163125196#0 163125196#1 487411728#0 487411728#1 -307556942 27471775#0 27471775#1 188476880#0 188476880#1 188476880#2"/>
    </vehicle>
    <vehicle id="truck37" type="truck_truck" depart="76.19" departLane="best">
        <route edges="220387889#0 220387889#1 525949274 220387887#0 220387887#1 220387887#2 220387887#5 220387887#6 141137046#1 141137046#3 141137047#0 141137047#2 141137047#3 -152813983 20297117 355309979 448979126 654708414 38563905 -21591353#1 -21591353#0 -604905865#1 -604905865#0 -188690103 53721857 188228388 188228389 188228381#0 188228390 36268330#0 -333890926 -21594233#5 -21594233#4 3042236#1 3042236#2 3042236#3 3042236#5 3042236#6 -656095436"/>
    </vehicle>
    <vehicle id="truck38" type="truck_truck" depart="78.24" departLane="best">
        <route edges="23159360#3 23159360#4 333507774#0 333507774#1 143586217 188228391 188228383 143586213#1 143586213#2 143586213#3 179056989 42772469#1 181361656#0 181361656#2 142944295#2 188015324#0 143586195#0 143586195#1 143586318#0 637815817#0 637815817#2 637815817#3 637815817#4 637815817#6 637815817#7 30412260 23190865 53721857 188228388 188228389 188228381#0 188228390 36268330#0 36268330#1 188228382 188228387#0 179060064#0 179060064#1 188228392 190465753#0 53436021"/>
    </vehicle>
    <vehicle id="truck40" type="truck_truck" depart="82.36" departLane="best" departSpeed="max">
        <route edges="9897177 121708075 152176405#0 152176405#1 60578527 121708051#0 121708051#1 121708051#3 48344707#2 152813966 25444569#0 111747607#1 111747607#2 111747607#3 111747607#4 554706400#0 247945422#1 152814002#0 152814002#2 244270739#0 244270739#1 244270739#2 244270739#3 562191406#0 307541272#1 307541272#2 463057029 220387891#0 220387891#1 463057018 463057022#0 463057022#1 463057022#2 463057022#3 463057022#4 460787688#1 460787688#2 460787688#3 460787688#4 460787688#5 460787688#6 654049725 543059990#0 -576410785 -576410787 -161413804 -188791147 -188791146#2 -188791146#1 -188791146#0 -25407493#1 -25407493#0 151157096#0 26949920 5009104#1 30372486 330344155 190601547"/>
    </vehicle>
    <vehicle id="truck41" type="truck_truck" depart="84.42" departLane="best">
        <route edges="-190417294#0 -131675656#2 -131675656#1 -131675656#0 425097090 3042239#1 -3042236#6 -3042236#5 -3042236#3 -3042236#2 -3042236#1 21594233#4 21594233#5 333890926 40287739#1 189307622 189307625 30412261 -25245659 -143586355#6 -143586355#5 -143586355#4"/>
    </vehicle>
    <vehicle id="truck42" type="truck_truck" depart="86.48" departLane="best">
        <route edges="-21594233#5 21594233#5 333890926 36268330#1 188228382 188228387#0 179060064#0 179060064#1 188228392 190465753#0 26961484 178064081 192027797 190465759 21521128 192029053 153147529#1 377833913#1 26949916 190586232 190586255 645338237 8508652 645338235 645338236#0 645338236#1 645338229 460573525 518001971 370610341 206628174#0 206628174#1 25501955#0 25501955#1 370610344 370610338 517998602 -469768614 25501984 5823480 5823609 153838850 -25502973 25502121"/>
    </vehicle>
    <vehicle id="truck43" type="truck_truck" depart="88.54" departLane="best">
        <route edges="444316122#0 444316122#1 451120809#2 451120809#3 463057277 584853313#1 368267186#0 368267186#1 351700501 129273989 32752621 516892195 4272708 516884618#0 516884618#1 516884619 16168075#0 16168075#1 16168075#2"/>
    </vehicle>
    <vehicle id="truck44" type="truck_truck" depart="90.60" departLane="best">
        <route edges="9781305 9781304 23179956#1 23179957 121708051#3 48344707#2 152813966 25444569#0 60578532#1 554713069 60578531#1 -554713067 -152176404#1 -46239724 -450274067 -23138735#0 142944424 188015327#0 43145614#0 143586195#0 143586195#1 143586318#0 637815817#0 637815817#2 637815817#3 637815817#4 637815817#6 637815817#7 30412260 23190865 53721857 188228388 188228389 188228381#0 188228390 36268330#0 -333890926 -21594233#5 -21594233#4 3042236#1 3042236#2 3042236#3 3042236#5 3042236#6 45748887#0 45748887#1 21594797#0"/>
    </vehicle>
    <vehicle id="truck46" type="truck_truck" depart="94.72" departLane="best">
        <route edges="-141137045#2 123342665#1 123342665#3 123342665#4 208440383 244270739#0 244270739#1 244270739#2 244270739#3 562191406#0 307541272#1 307541272#2 463057029 220387891#0 220387891#1 463057018 463057022#0 463057022#1 463057022#2 463057022#3 463057022#4 460787688#1 460787688#2 460787688#3 460787688#4 460787688#5 460787688#6 654049725 543059990#0 451120809#2 451120809#3 463057277 584853313#1 368267186#0 368267186#1 351700501 129273989 32752621 516892195 4272708 516884618#0 516884618#1 516884619 516892199 34330328#0 34330328#1"/>
    </vehicle>
    <vehicle id="truck47" type="truck_truck" depart="96.78" departLane="best">
        <route edges="26961484 178064081 192027797 190465759 21521128 192029053 153147529#1 377833913#1 144871320#0 -640522476 161413804 576410787 431576782 -543059990#0 -654049725 -541386221#1 -541386221#0 -311903943 -431576781#1 -431576781#0 -431576780 -463057020 232103860#0 463057021 463057026 463057027#1 -307541272#2 -307541272#1 606439155 314405033#0 314405033#1 606439158 220387889#0 220387889#1 525949274 220387887#0"/>
    </vehicle>
    <vehicle id="truck48" type="truck_truck" depart="98.84" departLane="best">
        <route edges="-554713067 -152176404#1 -46239724 -450274067 -23138735#0 142944424 188015327#0 43145614#0 143586195#0 143586195#1 143586318#0 637815817#0 637815817#2 637815817#3 637815817#4 637815817#6 637815817#7 30412260 23190865 53721857 188228388 188228389 188228381#0 188228390 36268330#0 36268330#1 188228382 188228387#0 179060064#0 179060064#1 188228392 190465753#0 26961484 8484620 53721854 190465815 8505164 25505536#0 25505536#1 25505536#2 25505536#3 25505536#4"/>
    </vehicle>
    <vehicle id="truck49" type="truck_truck" depart="100.89" departLane="best">
        <route edges="179060064#1 188228392 190465753#0 26961484 178064081 192027797 190465759 21521128 192029053 153147529#1 377833913#1 26949916 190586232 190586255 645338237 8508652 645338235 188822506#0 188822506#1 645338233 235536382 -518004768 645338224 460573534#0 460573534#1 645338231"/>
    </vehicle>
    <vehicle id="truck50" type="truck_truck" depart="102.95" departLane="best">
        <route edges="516884620 -516892195 -32752621 -129273989 -351700501 161303910 246109025#1 444316122#0 444316122#1 -543059990#0 -654049725 -541386221#1 -541386221#0 -311903943 -431576781#1 -431576781#0 -431576780 -463057020 232103860#0 463057021 463057026 463057027#1 -307541272#2 -307541272#1 606439155 314405033#0 314405033#1 606439158 258130590#0 258130590#2 220387886 208440384 525949279 606439152 161303905#0 463670811#1 463670811#2 606439138 606439135#0 606439135#1 554713070 554706401#0 554706401#1 152813965#0 152813986 24019672 152813977#1 8320141#1 606439164 656676190 -215080599 -44530697 -458542844#1 -458542844#0 -458542845#1 -606439134 -659691578"/>
    </vehicle>
    <vehicle id="truck51" type="truck_truck" depart="105.01" departLane="best">
        <route edges="23201600#8 23201600#9 23201600#10 23201600#11 23201600#12 144870968#0 144870968#6 144870968#7 144870968#8 144870968#9 144870968#10 144870968#11 53436020 4928828#1 646033701 216122814#0 216122814#1 190465810 330344157 185992233 264963988#0 572415630 53436021 30451267 25469048#1 631613582 631613581 625856813#0 179060068 631613577 631613576 625856812 333891064 3042238#0 3042238#1 3042238#2 -3042236#6 -3042236#5 -3042236#3"/>
    </vehicle>
    <vehicle id="truck52" type="truck_truck" depart="107.07" departLane="best" departSpeed="max">
        <route edges="419279932#0 419279932#1 307541272#1 307541272#2 463057029 220387891#0 220387891#1 463057018 463057022#0 463057022#1 463057022#2 463057022#3 463057022#4 460787688#1 460787688#2 460787688#3 460787688#4 460787688#5 460787688#6 654049725 543059990#0 -576410785 -576410787 -161413804 -188791147 -188791146#2 -188791146#1 -188791146#0 -25407493#1 -25407493#0 151157096#0 26949920 5009104#1 30372486 330344155 190601547 216122812#0"/>
    </vehicle>
    <vehicle id="truck53" type="truck_truck" depart="109.13" departLane="best">
        <route edges="-10304101 -25400473#1 -25400480 -9780341#1 -9780341#0 152813977#1 8320141#1 23165590#0 23165590#1 228186366#0 228186366#1 228186366#2 43145613#0 43145613#1 43145613#2 184627082#1 142944558 188015329 188015330#1 142944258 43145614#0 143586195#0 143586195#1 143586318#0 637815817#0 637815817#2 637815817#3 637815817#4 637815817#6 637815817#7 30412260 23190865 53721857 188228388 188228389 188228381#0 188228390 36268330#0 36268330#1 188228382 188228387#0 179060064#0 179060064#1 188228392 190465753#0 26961484 8484620 53721854 190465815 190601545 -40288842#1 -190601538 -194028632 194028631 194028630 216122812#0 23201600#0 23201600#1 23201600#2 23201600#3 23201600#4 23201600#5 23201600#6 23201600#7 23201600#8 23201600#9 23201600#10 23201600#11 23201600#12 144870968#0 141179035#0 141179035#1 141179035#2 141179035#3 141179035#4 141179035#5 141179035#6 141179035#7 141179035#8 141179035#9 141179035#10 141179035#11 141179035#12 141179035#13 141179036#0 141179036#1 141179036#2"/>
    </vehicle>
    <vehicle id="truck54" type="truck_truck" depart="111.19" departLane="best">
        <route edges="-141179035#13 -141179035#12 -141179035#11 -141179035#10 -141179035#9 -141179035#8 -141179035#7 -141179035#6 -141179035#5 -141179035#4 -141179035#3 -141179035#2 -141179035#1 -141179035#0 144870968#6 144870968#7 144870968#8 144870968#9 144870968#10 144870968#11 53436020 4928828#1 132032333 194028632 40288819 40288842#1 8505182 333902146 190601549 333902153 192029053 153147529#1 377833913#1 144871320#0 -640522476 161413804 576410787 431576782 -543059990#0 -654049725 -541386221#1 -541386221#0 -311903943 -431576781#1 -431576781#0 -431576780 -463057020 232103860#0 463057021 463057026 463057027#1 -307541272#2 -307541272#1 606439155 314405033#0 314405033#1 606439158 258130590#0 258130590#2 220387886 208440384 525949279 606439152"/>
    </vehicle>
    <vehicle id="truck55" type="truck_truck" depart="113.25" departLane="best">
        <route edges="516884628 516884629 370610345#0 370610345#1 370610344 460573535#0 460573535#1 460573536 370610341 400216393#0 400216393#1 516884625 516884626 516884623 23505459 31028439 516884620 -516892195 -32752621 -129273989 -351700501 161303910 246109025#1 444316122#0 444316122#1 -543059990#0 -654049725 -541386221#1 -541386221#0 -311903943 -431576781#1 -431576781#0 -431576780 -463057020 232103860#0 463057021 463057026 463057027#1 463057029"/>
    </vehicle>
    <vehicle id="truck56" type="truck_truck" depart="115.31" departLane="best" departSpeed="max">