<?xml version="1.0" encoding="UTF-8"?>

<!-- generated on Wed Feb  6 15:52:02 2019 by Eclipse SUMO polyconvert Version 1.1.0
<configuration xmlns:xsi="http://www.w3.org/2001/XMLSchema-instance" xsi:noNamespaceSchemaLocation="http://sumo.dlr.de/xsd/polyconvertConfiguration.xsd">

    <input>
        <net-file value="osm.net.xml"/>
        <osm-files value="osm_bbox.osm.xml"/>
        <osm.keep-full-type value="true"/>
        <type-file value="/usr/local/Cellar/sumo/1.1.0/share/sumo/data/typemap/osmPolyconvert.typ.xml"/>
    </input>

    <output>
        <output-file value="osm.poly.xml"/>
    </output>

    <processing>
        <poi-layer-offset value="5"/>
    </processing>

    <report>
        <verbose value="true"/>
    </report>

</configuration>
-->

<additional xmlns:xsi="http://www.w3.org/2001/XMLSchema-instance" xsi:noNamespaceSchemaLocation="http://sumo.dlr.de/xsd/additional_file.xsd">
    <location netOffset="-565120.67,-5930830.85" convBoundary="-4613.28,-7841.80,6971.55,3814.54" origBoundary="9.913090,53.450981,10.085598,53.556488" projParameter="+proj=utm +zone=32 +ellps=WGS84 +datum=WGS84 +units=m +no_defs"/>

    <poly id="100290512" type="building.yes" color="255,230,230" fill="1" layer="-1.00" shape="2171.955213,2715.676685 2198.107005,2728.578601 2239.872643,2644.387164 2226.836178,2637.947766 2218.729967,2654.288858 2208.891730,2649.430664 2184.519070,2698.553439 2181.248462,2696.937897 2171.955213,2715.676685"/>
    <poly id="100290523" type="building.yes" color="255,230,230" fill="1" layer="-1.00" shape="2468.073475,2811.305201 2464.414345,2819.709291 2501.609749,2838.768530 2495.615138,2851.066953 2493.372578,2849.866490 2485.268254,2866.496471 2488.292545,2868.175462 2482.150013,2880.627559 2444.040520,2862.946250 2440.270270,2871.248624 2427.037310,2865.173028 2431.610465,2855.869583 2424.292216,2852.782804 2430.233633,2840.483534 2436.999432,2843.740444 2440.964607,2834.784366 2445.939427,2825.664716 2439.582161,2822.569420 2445.485429,2810.625684 2451.747784,2813.408074 2455.431327,2805.148974 2468.073475,2811.305201"/>
    <poly id="100290525" type="building.yes" color="255,230,230" fill="1" layer="-1.00" shape="2254.310093,2710.520455 2274.483760,2720.199655 2279.004848,2710.817435 2285.573595,2713.971165 2297.327302,2689.570736 2293.114807,2687.552216 2296.502239,2680.523861 2291.183920,2677.977707 2289.756555,2680.939343 2284.168326,2678.266945 2285.773201,2674.940653 2277.335079,2670.892325 2274.050233,2677.699620 2270.857877,2676.174148 2254.310093,2710.520455"/>
    <poly id="100290525#1" type="historic.heritage" color="128,255,128" fill="1" layer="-1.00" shape="2254.310093,2710.520455 2274.483760,2720.199655 2279.004848,2710.817435 2285.573595,2713.971165 2297.327302,2689.570736 2293.114807,2687.552216 2296.502239,2680.523861 2291.183920,2677.977707 2289.756555,2680.939343 2284.168326,2678.266945 2285.773201,2674.940653 2277.335079,2670.892325 2274.050233,2677.699620 2270.857877,2676.174148 2254.310093,2710.520455"/>
    <poly id="100290531" type="building.yes" color="255,230,230" fill="1" layer="-1.00" shape="2233.942758,2714.869669 2251.324948,2723.262711 2267.940678,2731.956428 2285.006780,2740.200433 2285.539788,2739.073096 2303.551701,2701.520994 2312.042259,2683.805791 2312.314685,2679.581439 2311.824248,2674.945617 2309.917128,2672.058740 2308.111469,2670.419533 2306.108098,2669.166945 2265.555007,2649.338102 2233.942758,2714.869669"/>
    <poly id="100290531#1" type="historic.heritage" color="128,255,128" fill="1" layer="-1.00" shape="2233.942758,2714.869669 2251.324948,2723.262711 2267.940678,2731.956428 2285.006780,2740.200433 2285.539788,2739.073096 2303.551701,2701.520994 2312.042259,2683.805791 2312.314685,2679.581439 2311.824248,2674.945617 2309.917128,2672.058740 2308.111469,2670.419533 2306.108098,2669.166945 2265.555007,2649.338102 2233.942758,2714.869669"/>
    <poly id="101385695" type="amenity.parking" color="184,184,179" fill="1" layer="-1.00" shape="2772.590700,2972.733741 2765.117158,2988.760352 2752.253803,2982.377589 2746.261326,2994.953912 2743.205265,2993.652611 2740.039843,3000.416805 2730.876140,2996.201431 2739.880632,2977.848989 2737.794642,2976.828691 2745.671803,2959.917684 2772.590700,2972.733741"/>
    <poly id="102693206" type="amenity.parking" color="184,184,179" fill="1" layer="-1.00" shape="2866.308539,2949.069548 2883.719501,2957.632285 2888.354073,2948.263385 2870.943084,2939.700632 2866.308539,2949.069548"/>
    <poly id="102693232" type="amenity.parking" color="184,184,179" fill="1" layer="-1.00" shape="2846.303355,2939.801893 2851.364301,2942.233709 2855.360331,2933.946027 2850.332345,2931.525808 2846.303355,2939.801893"/>
    <poly id="102693240" type="amenity.parking" color="184,184,179" fill="1" layer="-1.00" shape="2858.568130,2964.736110 2876.018318,2973.332766 2883.588008,2958.019834 2866.144402,2949.423247 2858.568130,2964.736110"/>
    <poly id="102693242" type="building.yes" color="255,230,230" fill="1" layer="-1.00" shape="2858.301033,2964.876913 2876.213551,2973.580373 2880.774574,2964.254915 2888.661085,2948.112032 2870.755276,2939.397497 2869.451682,2942.026939 2862.922297,2955.507799 2858.301033,2964.876913"/>
    <poly id="102693249" type="amenity.parking" color="184,184,179" fill="1" layer="-1.00" shape="2810.155713,2935.108783 2817.845463,2919.730717 2812.678790,2917.275161 2812.952204,2909.790634 2816.274058,2901.838152 2805.630872,2896.811321 2801.003105,2906.636602 2803.785804,2908.056401 2795.699222,2924.764016 2799.805611,2926.759213 2798.589944,2929.267542 2810.155713,2935.108783"/>
    <poly id="102693253" type="amenity.parking" color="184,184,179" fill="1" layer="-1.00" shape="2753.884119,2910.954667 2769.232966,2918.241092 2785.794748,2883.140078 2768.776544,2874.883792 2760.479239,2893.346497 2761.887483,2894.034373 2753.884119,2910.954667"/>
    <poly id="102693263" type="amenity.parking" color="184,184,179" fill="1" layer="-1.00" shape="2818.121648,2919.879344 2808.656131,2938.926007 2815.101758,2942.301257 2833.434911,2904.777966 2826.984280,2901.747557 2818.121648,2919.879344"/>
    <poly id="105899873" type="landuse.commercial" color="209,209,204" fill="1" layer="-3.00" shape="3436.928809,3063.766135 3446.876295,3068.717542 3541.396754,3115.723883 3620.329006,2949.900838 3513.146630,2903.487707 3456.350824,3023.223299 3436.928809,3063.766135"/>
    <poly id="105899876" type="landuse.commercial" color="209,209,204" fill="1" layer="-3.00" shape="3332.600971,3012.502662 3253.633892,2975.250656 3284.527135,2909.915479 3331.952844,2814.143095 3409.194611,2854.898565 3332.600971,3012.502662"/>
    <poly id="105899877" type="amenity.parking" color="184,184,179" fill="1" layer="-1.00" shape="3433.311392,2910.906195 3450.439572,2876.394236 3472.145513,2885.767080 3454.465834,2921.283509 3433.311392,2910.906195"/>
    <poly id="108837416" type="leisure.pitch" color="207,245,201" fill="1" layer="-2.00" shape="3232.104510,2824.212291 3216.902583,2855.770864 3203.371715,2849.277058 3218.566783,2817.729471 3232.104510,2824.212291"/>
    <poly id="108837416#1" type="sport.tennis" color="79,230,125" fill="1" layer="-2.00" shape="3232.104510,2824.212291 3216.902583,2855.770864 3203.371715,2849.277058 3218.566783,2817.729471 3232.104510,2824.212291"/>
    <poly id="108837420" type="leisure.pitch" color="207,245,201" fill="1" layer="-2.00" shape="3248.026961,2790.505563 3232.831452,2822.064181 3219.293881,2815.570234 3234.495783,2784.022794 3248.026961,2790.505563"/>
    <poly id="108837420#1" type="sport.tennis" color="79,230,125" fill="1" layer="-2.00" shape="3248.026961,2790.505563 3232.831452,2822.064181 3219.293881,2815.570234 3234.495783,2784.022794 3248.026961,2790.505563"/>
    <poly id="108837421" type="leisure.pitch" color="207,245,201" fill="1" layer="-2.00" shape="3248.879493,2868.429231 3234.596350,2898.320881 3220.834383,2891.779166 3235.110831,2861.887379 3248.879493,2868.429231"/>
    <poly id="108837421#1" type="sport.tennis" color="79,230,125" fill="1" layer="-2.00" shape="3248.879493,2868.429231 3234.596350,2898.320881 3220.834383,2891.779166 3235.110831,2861.887379 3248.879493,2868.429231"/>
    <poly id="108837426" type="leisure.pitch" color="207,245,201" fill="1" layer="-2.00" shape="3296.093230,2808.738325 3280.890986,2840.285570 3267.359996,2833.802704 3282.555704,2802.244196 3296.093230,2808.738325"/>
    <poly id="108837426#1" type="sport.tennis" color="79,230,125" fill="1" layer="-2.00" shape="3296.093230,2808.738325 3280.890986,2840.285570 3267.359996,2833.802704 3282.555704,2802.244196 3296.093230,2808.738325"/>
    <poly id="108837427" type="leisure.sports_centre" color="207,245,201" fill="1" layer="-2.00" shape="3188.983691,3032.007903 3146.354667,3011.384645 3171.892577,2955.151077 3216.252189,2975.732854 3208.558193,2992.234066 3188.983691,3032.007903"/>
    <poly id="108837427#1" type="sport.tennis" color="79,230,125" fill="1" layer="-2.00" shape="3188.983691,3032.007903 3146.354667,3011.384645 3171.892577,2955.151077 3216.252189,2975.732854 3208.558193,2992.234066 3188.983691,3032.007903"/>
    <poly id="108837428" type="leisure.sports_centre" color="207,245,201" fill="1" layer="-2.00" shape="3152.571920,2924.717324 3171.148803,2881.535166 3176.527104,2870.274581 3189.044151,2865.315073 3196.210505,2849.106621 3184.210939,2843.491818 3217.310910,2773.114242 3251.360693,2788.651143 3256.600359,2778.746131 3302.295976,2800.060168 3223.643546,2958.626412 3152.571920,2924.717324"/>
    <poly id="108837428#1" type="sport.tennis" color="79,230,125" fill="1" layer="-2.00" shape="3152.571920,2924.717324 3171.148803,2881.535166 3176.527104,2870.274581 3189.044151,2865.315073 3196.210505,2849.106621 3184.210939,2843.491818 3217.310910,2773.114242 3251.360693,2788.651143 3256.600359,2778.746131 3302.295976,2800.060168 3223.643546,2958.626412 3152.571920,2924.717324"/>
    <poly id="108837430" type="building.yes" color="255,230,230" fill="1" layer="-1.00" shape="3156.292294,2918.573409 3173.645364,2882.572726 3184.947720,2888.277555 3187.546299,2884.098033 3190.101035,2885.236587 3173.650254,2919.325298 3189.752647,2927.158107 3186.684744,2933.088901 3156.292294,2918.573409"/>
    <poly id="108837432" type="leisure.pitch" color="207,245,201" fill="1" layer="-2.00" shape="3263.124668,2875.011410 3247.922843,2906.558761 3234.392164,2900.064864 3249.587291,2868.517374 3263.124668,2875.011410"/>
    <poly id="108837432#1" type="sport.tennis" color="79,230,125" fill="1" layer="-2.00" shape="3263.124668,2875.011410 3247.922843,2906.558761 3234.392164,2900.064864 3249.587291,2868.517374 3263.124668,2875.011410"/>
    <poly id="108837433" type="leisure.sports_centre" color="207,245,201" fill="1" layer="-2.00" shape="3106.229767,2992.622814 3132.906001,2938.297094 3168.401334,2955.078299 3142.148176,3009.910663 3106.229767,2992.622814"/>
    <poly id="108837433#1" type="sport.tennis" color="79,230,125" fill="1" layer="-2.00" shape="3106.229767,2992.622814 3132.906001,2938.297094 3168.401334,2955.078299 3142.148176,3009.910663 3106.229767,2992.622814"/>
    <poly id="108837435" type="amenity.parking" color="184,184,179" fill="1" layer="-1.00" shape="3169.324067,2976.488887 3177.640177,2958.661377 3179.687298,2959.614548 3214.113496,2975.612867 3205.797274,2993.440314 3169.324067,2976.488887"/>
    <poly id="108837438" type="leisure.pitch" color="207,245,201" fill="1" layer="-2.00" shape="3280.043461,2842.064734 3264.847888,2873.623251 3251.310510,2867.129210 3266.512475,2835.581871 3280.043461,2842.064734"/>
    <poly id="108837438#1" type="sport.tennis" color="79,230,125" fill="1" layer="-2.00" shape="3280.043461,2842.064734 3264.847888,2873.623251 3251.310510,2867.129210 3266.512475,2835.581871 3280.043461,2842.064734"/>
    <poly id="108837439" type="leisure.pitch" color="207,245,201" fill="1" layer="-2.00" shape="3282.008844,2802.024856 3266.806675,2833.572146 3253.275647,2827.089321 3268.471280,2795.530768 3282.008844,2802.024856"/>
    <poly id="108837439#1" type="sport.tennis" color="79,230,125" fill="1" layer="-2.00" shape="3282.008844,2802.024856 3266.806675,2833.572146 3253.275647,2827.089321 3268.471280,2795.530768 3282.008844,2802.024856"/>
    <poly id="108837440" type="leisure.pitch" color="207,245,201" fill="1" layer="-2.00" shape="3265.583273,2835.223469 3250.381313,2866.770811 3236.850360,2860.288032 3252.052409,2828.729523 3265.583273,2835.223469"/>
    <poly id="108837440#1" type="sport.tennis" color="79,230,125" fill="1" layer="-2.00" shape="3265.583273,2835.223469 3250.381313,2866.770811 3236.850360,2860.288032 3252.052409,2828.729523 3265.583273,2835.223469"/>
    <poly id="108837441" type="building.yes" color="255,230,230" fill="1" layer="-1.00" shape="3202.246108,2891.320848 3205.188816,2885.343743 3230.714287,2897.318856 3228.183799,2903.657981 3202.246108,2891.320848"/>
    <poly id="108837443" type="leisure.pitch" color="207,245,201" fill="1" layer="-2.00" shape="3231.438602,2783.255259 3216.243183,2814.813928 3202.705570,2808.320029 3217.907381,2776.772537 3231.438602,2783.255259"/>
    <poly id="108837443#1" type="sport.tennis" color="79,230,125" fill="1" layer="-2.00" shape="3231.438602,2783.255259 3216.243183,2814.813928 3202.705570,2808.320029 3217.907381,2776.772537 3231.438602,2783.255259"/>
    <poly id="108837445" type="leisure.pitch" color="207,245,201" fill="1" layer="-2.00" shape="3267.664248,2795.430057 3252.468782,2826.977488 3238.931090,2820.494609 3254.133271,2788.936107 3267.664248,2795.430057"/>
    <poly id="108837445#1" type="sport.tennis" color="79,230,125" fill="1" layer="-2.00" shape="3267.664248,2795.430057 3252.468782,2826.977488 3238.931090,2820.494609 3254.133271,2788.936107 3267.664248,2795.430057"/>
    <poly id="108837446" type="leisure.pitch" color="207,245,201" fill="1" layer="-2.00" shape="3215.144069,2816.578334 3199.942233,2848.136960 3186.411321,2841.643203 3201.606298,2810.095563 3215.144069,2816.578334"/>
    <poly id="108837446#1" type="sport.tennis" color="79,230,125" fill="1" layer="-2.00" shape="3215.144069,2816.578334 3199.942233,2848.136960 3186.411321,2841.643203 3201.606298,2810.095563 3215.144069,2816.578334"/>
    <poly id="108837447" type="leisure.pitch" color="207,245,201" fill="1" layer="-2.00" shape="3251.247317,2828.495318 3236.045273,2860.053830 3222.514443,2853.559969 3237.709628,2822.012443 3251.247317,2828.495318"/>
    <poly id="108837447#1" type="sport.tennis" color="79,230,125" fill="1" layer="-2.00" shape="3251.247317,2828.495318 3236.045273,2860.053830 3222.514443,2853.559969 3237.709628,2822.012443 3251.247317,2828.495318"/>
    <poly id="108891213" type="building.yes" color="255,230,230" fill="1" layer="-1.00" shape="2455.431327,2805.148974 2459.728802,2796.130908 2453.003498,2792.818912 2454.538195,2786.531897 2458.597568,2780.258781 2477.276975,2789.650419 2479.622617,2790.596430 2487.224475,2774.816018 2488.993101,2771.169456 2482.448266,2767.748734 2487.850186,2757.044087 2532.628217,2779.272112 2527.004472,2790.652275 2501.149329,2777.941918 2491.710388,2797.056333 2515.413719,2808.700992 2509.783104,2820.103330 2472.912261,2801.972217 2468.073475,2811.305201 2455.431327,2805.148974"/>
    <poly id="114412893" type="building.yes" color="255,230,230" fill="1" layer="-1.00" shape="3266.547821,1404.439108 3290.924187,1423.530097 3303.640469,1407.379954 3279.264229,1388.277775 3266.547821,1404.439108"/>
    <poly id="114412894" type="landuse.grass" color="194,194,130" fill="1" layer="-3.00" shape="3320.741885,1350.301588 3317.093408,1353.219608 3313.860746,1353.061481 3310.110723,1350.637081 3302.759827,1336.410401 3303.248340,1332.434020 3306.090848,1329.782484 3321.224213,1321.600955 3327.485897,1321.791870 3331.099717,1325.838849 3330.954704,1330.354304 3320.741885,1350.301588"/>
    <poly id="114412895" type="building.yes" color="255,230,230" fill="1" layer="-1.00" shape="3458.811433,1745.455237 3462.572362,1740.257929 3461.986268,1739.081079 3467.215990,1731.334775 3469.366397,1729.774857 3471.725477,1731.188881 3473.684021,1733.709787 3475.055501,1736.945418 3475.936091,1739.751091 3475.040301,1744.378034 3475.948207,1745.759848 3473.193126,1748.334661 3470.173936,1753.119912 3458.811433,1745.455237"/>
    <poly id="114412898" type="building.yes" color="255,230,230" fill="1" layer="-1.00" shape="3322.046886,1411.641333 3330.330136,1400.868095 3313.847795,1388.255952 3307.814585,1396.090922 3314.757535,1401.410111 3312.501045,1404.337182 3322.046886,1411.641333"/>
    <poly id="114412900" type="building.yes" color="255,230,230" fill="1" layer="-1.00" shape="3301.957468,1849.597805 3299.509782,1846.980865 3298.565566,1843.528939 3299.332063,1840.035045 3301.645248,1837.297950 3304.959150,1835.943982 3308.533502,1836.285095 3311.534273,1838.242437 3313.278711,1841.361029 3313.372575,1844.945282 3311.788362,1848.149145 3308.894411,1850.254705 3305.340627,1850.781795 3301.957468,1849.597805"/>
    <poly id="114412900#1" type="historic.bunker" color="128,255,128" fill="1" layer="-1.00" shape="3301.957468,1849.597805 3299.509782,1846.980865 3298.565566,1843.528939 3299.332063,1840.035045 3301.645248,1837.297950 3304.959150,1835.943982 3308.533502,1836.285095 3311.534273,1838.242437 3313.278711,1841.361029 3313.372575,1844.945282 3311.788362,1848.149145 3308.894411,1850.254705 3305.340627,1850.781795 3301.957468,1849.597805"/>
    <poly id="114412900#2" type="landuse.grass" color="194,194,130" fill="1" layer="-3.00" shape="3301.957468,1849.597805 3299.509782,1846.980865 3298.565566,1843.528939 3299.332063,1840.035045 3301.645248,1837.297950 3304.959150,1835.943982 3308.533502,1836.285095 3311.534273,1838.242437 3313.278711,1841.361029 3313.372575,1844.945282 3311.788362,1848.149145 3308.894411,1850.254705 3305.340627,1850.781795 3301.957468,1849.597805"/>
    <poly id="114412904" type="building.yes" color="255,230,230" fill="1" layer="-1.00" shape="3290.924187,1423.530097 3295.204075,1426.896829 3307.927152,1410.735669 3303.640469,1407.379954 3290.924187,1423.530097"/>
    <poly id="114412907" type="building.yes" color="255,230,230" fill="1" layer="-1.00" shape="3114.239684,1638.483460 3121.415771,1633.624551 3105.134503,1604.826277 3097.383552,1609.098302 3114.239684,1638.483460"/>
    <poly id="114412908" type="landuse.grass" color="194,194,130" fill="1" layer="-3.00" shape="3227.217952,1850.885156 3242.754351,1844.500691 3249.635028,1844.466815 3248.832518,1840.838920 3243.320125,1828.775319 3223.349619,1841.549241 3227.217952,1850.885156"/>
    <poly id="114423874" type="building.yes" color="255,230,230" fill="1" layer="-1.00" shape="3342.646532,1583.729603 3365.541669,1602.944181 3363.633072,1605.197528 3356.747374,1612.408083 3334.356904,1593.590309 3342.646532,1583.729603"/>
    <poly id="114423875" type="building.yes" color="255,230,230" fill="1" layer="-1.00" shape="3200.866107,1560.801474 3199.165597,1562.879866 3202.468896,1565.475749 3198.419422,1570.468798 3197.213842,1569.494432 3180.803126,1589.063016 3178.685806,1589.254925 3176.826569,1588.560409 3171.194134,1575.137678 3170.668808,1575.252476 3164.122743,1559.457619 3167.662286,1558.095689 3166.748691,1555.723554 3165.209090,1556.302142 3153.563904,1525.490016 3147.227082,1510.343577 3151.429363,1508.535011 3136.161629,1470.593793 3147.739485,1466.655336 3162.514751,1504.266788 3164.114981,1503.622313 3167.756952,1513.055035 3166.641771,1515.453460 3162.632006,1517.242544 3178.667899,1556.585843 3176.728404,1557.314420 3180.098688,1565.819684 3182.265791,1565.394830 3184.109206,1566.267150 3189.854156,1559.084351 3188.797137,1558.379184 3192.506069,1554.015437 3200.866107,1560.801474"/>
    <poly id="114423876" type="building.yes" color="255,230,230" fill="1" layer="-1.00" shape="3279.760666,1532.457331 3282.014850,1534.259181 3283.358469,1535.313458 3289.986830,1540.372136 3283.617159,1548.569449 3275.934532,1542.616474 3273.391003,1540.654657 3279.760666,1532.457331"/>
    <poly id="114423879" type="building.yes" color="255,230,230" fill="1" layer="-1.00" shape="3365.323654,1625.284022 3354.296654,1615.020761 3356.747374,1612.408083 3363.633072,1605.197528 3374.513148,1615.536567 3372.238116,1617.918119 3368.373883,1622.012427 3365.323654,1625.284022"/>
    <poly id="114423881" type="building.yes" color="255,230,230" fill="1" layer="-1.00" shape="3368.373883,1622.012427 3372.148410,1625.472046 3375.966899,1621.332569 3372.238116,1617.918119 3368.373883,1622.012427"/>
    <poly id="114423882" type="building.yes" color="255,230,230" fill="1" layer="-1.00" shape="3289.986830,1540.372136 3296.207668,1545.191252 3291.432026,1551.342035 3289.837992,1553.388556 3283.617159,1548.569449 3289.986830,1540.372136"/>
    <poly id="114423885" type="landuse.grass" color="194,194,130" fill="1" layer="-3.00" shape="3208.138179,1361.989647 3216.422358,1373.581461 3230.712125,1383.813721 3232.098882,1386.470892 3232.339118,1390.023877 3232.366580,1392.705878 3230.861974,1395.899794 3227.400126,1398.753820 3223.587268,1400.211895 3217.856104,1400.930080 3206.448412,1388.514170 3204.360353,1384.845429 3202.372133,1380.232342 3202.375984,1366.223528 3208.138179,1361.989647"/>
    <poly id="114423887" type="building.yes" color="255,230,230" fill="1" layer="-1.00" shape="3256.111799,1535.030036 3261.882783,1528.348413 3266.709011,1522.365238 3279.760666,1532.457331 3273.391003,1540.654657 3267.700990,1536.254960 3263.661615,1541.459515 3256.111799,1535.030036"/>
    <poly id="114423889" type="amenity.parking" color="184,184,179" fill="1" layer="-1.00" shape="3161.385286,1546.610870 3154.831358,1549.231069 3140.814992,1514.612640 3147.656028,1511.851922 3161.385286,1546.610870"/>
    <poly id="114423890" type="landuse.grass" color="194,194,130" fill="1" layer="-3.00" shape="3204.148918,1390.294591 3215.081631,1401.635431 3211.879131,1402.601635 3198.915276,1396.027140 3193.029340,1395.530275 3187.918683,1392.763602 3184.896171,1387.245400 3186.349285,1377.986521 3198.979092,1368.711325 3199.443229,1380.156578 3195.983637,1380.106518 3193.437951,1389.739030 3204.148918,1390.294591"/>
    <poly id="114423893" type="building.yes" color="255,230,230" fill="1" layer="-1.00" shape="3294.617669,1505.789799 3287.962152,1493.909878 3294.611561,1490.200800 3299.276772,1498.535758 3301.267067,1502.080730 3294.617669,1505.789799"/>
    <poly id="114423896" type="building.yes" color="255,230,230" fill="1" layer="-1.00" shape="3325.834666,1526.682548 3321.478413,1522.647059 3316.860443,1518.374113 3327.068673,1507.406238 3336.036272,1515.714595 3325.834666,1526.682548"/>
    <poly id="114423897" type="amenity.parking" color="184,184,179" fill="1" layer="-1.00" shape="3119.597937,1486.065650 3126.253594,1483.291094 3120.627668,1469.857399 3113.965369,1472.631867 3119.597937,1486.065650"/>
    <poly id="114423899" type="amenity.parking" color="184,184,179" fill="1" layer="-1.00" shape="3129.373078,1473.388669 3135.907695,1470.734773 3151.074187,1507.884510 3144.546239,1510.538480 3129.373078,1473.388669"/>
    <poly id="114423900" type="landuse.grass" color="194,194,130" fill="1" layer="-3.00" shape="3218.654717,1408.040654 3219.554502,1409.077361 3221.207206,1415.343521 3220.380011,1420.283054 3218.164473,1425.881238 3214.176525,1432.110262 3203.686645,1445.600127 3178.228526,1424.747008 3171.275929,1407.254967 3164.660989,1402.163277 3157.428282,1402.659533 3120.089056,1429.614462 3115.242685,1439.291649 3114.000646,1444.047171 3108.084403,1433.724852 3168.044004,1391.007338 3173.502506,1390.808117 3177.374566,1392.588809 3181.235899,1396.027269 3182.374798,1397.490253 3182.595320,1400.575616 3180.669836,1403.997125 3179.328339,1409.207399 3180.099605,1415.004587 3183.422624,1420.827562 3188.515036,1424.395109 3194.596731,1425.562421 3199.687247,1424.679161 3204.198488,1422.140729 3207.908019,1417.743620 3209.601154,1412.972395 3213.598875,1407.900715 3217.479525,1407.712089 3218.654717,1408.040654"/>
    <poly id="114423901" type="landuse.grass" color="194,194,130" fill="1" layer="-3.00" shape="3223.950016,1406.292479 3243.405122,1401.311079 3252.990204,1402.251021 3261.304257,1406.733208 3304.435563,1440.338486 3279.215713,1470.327466 3270.909570,1473.545234 3235.282294,1428.031754 3227.926125,1419.657908 3226.425965,1415.218779 3223.667981,1407.000523 3223.950016,1406.292479"/>
    <poly id="114423902" type="landuse.grass" color="194,194,130" fill="1" layer="-3.00" shape="3260.758938,1494.728636 3267.115305,1488.367053 3267.606467,1475.967578 3232.945209,1431.035585 3223.779035,1421.767637 3222.837928,1421.754014 3216.793981,1433.550146 3206.005726,1447.503021 3252.014502,1485.188562 3252.114346,1487.448786 3260.758938,1494.728636"/>
    <poly id="114423902#1" type="leisure.park" color="207,245,201" fill="1" layer="-2.00" shape="3260.758938,1494.728636 3267.115305,1488.367053 3267.606467,1475.967578 3232.945209,1431.035585 3223.779035,1421.767637 3222.837928,1421.754014 3216.793981,1433.550146 3206.005726,1447.503021 3252.014502,1485.188562 3252.114346,1487.448786 3260.758938,1494.728636"/>
    <poly id="114423903" type="building.yes" color="255,230,230" fill="1" layer="-1.00" shape="3291.432026,1551.342035 3292.777195,1555.033433 3297.768374,1559.167113 3299.837296,1560.944034 3293.266361,1568.392908 3286.498851,1562.876002 3291.188983,1557.135674 3289.837992,1553.388556 3291.432026,1551.342035"/>
    <poly id="115085081" type="building.yes" color="255,230,230" fill="1" layer="-1.00" shape="2567.748980,2141.243603 2569.162412,2140.663016 2570.295578,2143.449880 2573.462467,2142.148933 2572.322836,2139.350850 2574.563060,2138.426058 2575.709317,2141.224238 2578.729469,2139.987953 2577.510162,2137.199852 2579.183786,2136.500603 2580.336348,2139.321128 2583.503242,2138.020188 2582.350682,2135.199662 2584.104303,2134.468182 2585.256703,2137.299833 2588.423601,2135.998896 2587.264735,2133.156025 2588.884871,2132.489393 2590.043735,2135.332265 2593.210635,2134.031332 2592.045305,2131.177239 2593.665602,2130.499484 2594.837398,2133.364797 2597.991048,2132.063677 2596.825880,2129.198459 2598.939572,2128.316372 2600.117832,2131.192905 2603.271485,2129.891789 2602.099853,2127.015349 2603.833441,2126.294715 2605.011540,2129.182375 2608.051746,2127.935269 2606.880595,2125.025454 2608.794059,2124.240641 2609.978622,2127.139522 2613.032244,2125.881484 2611.874508,2122.960734 2613.668057,2122.218710 2614.985627,2125.086119 2617.785847,2123.935718 2616.581888,2121.003177 2618.562099,2120.185944 2619.792723,2123.107742 2622.772980,2121.882039 2621.575809,2118.938466 2623.389401,2118.185607 2624.693074,2121.097327 2627.653294,2119.882467 2626.456445,2116.916643 2627.076544,2116.658496 2664.814998,2101.021680 2667.128631,2100.064605 2668.383501,2103.142542 2671.543818,2101.841566 2670.282483,2098.752409 2672.316046,2097.913711 2673.584006,2101.002964 2676.451001,2099.820175 2675.189828,2096.719892 2677.163433,2095.902589 2678.444485,2099.003159 2681.391480,2097.788141 2680.197214,2094.644309 2682.064157,2093.869984 2683.298341,2097.003263 2686.198633,2095.809831 2684.924532,2092.687105 2686.971512,2091.837479 2688.272119,2094.960587 2691.292331,2093.724373 2689.978633,2090.589950 2691.925577,2089.783397 2693.225861,2092.928755 2696.119532,2091.735234 2694.832662,2088.578941 2696.959645,2087.697088 2698.273019,2090.853762 2701.013322,2089.724803 2699.719989,2086.557288 2713.148722,2080.986479 2701.547825,2052.523905 2699.371014,2047.185066 2541.735509,2111.128278 2556.000839,2146.115662 2563.415118,2143.039660 2564.588559,2142.555773 2565.721887,2145.331511 2568.882147,2144.030466 2567.748980,2141.243603"/>
    <poly id="119227366" type="building.roof" color="255,230,230" fill="1" layer="-1.00" shape="2896.484985,2308.634461 2905.183994,2306.089350 2900.791323,2291.271666 2876.515894,2299.434028 2880.305738,2311.016178 2868.153199,2314.980348 2870.806631,2323.096758 2898.287809,2314.146043 2896.484985,2308.634461"/>
    <poly id="119227368" type="amenity.fast_food" color="237,199,199" fill="1" layer="-1.00" shape="2928.440580,2316.650286 2926.149914,2310.041214 2925.039428,2309.836046 2924.269396,2309.001548 2924.115929,2308.153685 2924.379595,2307.334089 2925.004658,2306.731117 2921.893031,2297.762419 2933.296410,2293.820965 2941.752872,2318.210851 2945.682735,2316.854394 2947.789070,2322.915596 2934.314240,2327.572654 2931.514339,2319.509729 2929.655992,2320.150555 2928.426076,2319.954791 2927.591067,2319.030340 2927.451655,2318.127044 2927.762346,2317.263619 2928.440580,2316.650286"/>
    <poly id="119227368#1" type="building.commercial" color="255,230,230" fill="1" layer="-1.00" shape="2928.440580,2316.650286 2926.149914,2310.041214 2925.039428,2309.836046 2924.269396,2309.001548 2924.115929,2308.153685 2924.379595,2307.334089 2925.004658,2306.731117 2921.893031,2297.762419 2933.296410,2293.820965 2941.752872,2318.210851 2945.682735,2316.854394 2947.789070,2322.915596 2934.314240,2327.572654 2931.514339,2319.509729 2929.655992,2320.150555 2928.426076,2319.954791 2927.591067,2319.030340 2927.451655,2318.127044 2927.762346,2317.263619 2928.440580,2316.650286"/>
    <poly id="119227370" type="amenity.parking" color="184,184,179" fill="1" layer="-1.00" shape="2943.112194,2314.947992 2953.848754,2311.286274 2955.578573,2316.340620 2959.741485,2314.909648 2948.445246,2282.011139 2933.519030,2287.114604 2937.736456,2299.370587 2943.211331,2297.502311 2944.089182,2300.051923 2938.634348,2301.909359 2943.112194,2314.947992"/>
    <poly id="119227375" type="amenity.parking" color="184,184,179" fill="1" layer="-1.00" shape="2977.725594,2332.593943 2972.528796,2336.780603 2969.976411,2333.617098 2966.120753,2336.721541 2978.290573,2351.773891 2990.326846,2342.089056 2980.709580,2330.189059 2977.725594,2332.593943"/>
    <poly id="119388681" type="building.yes" color="255,230,230" fill="1" layer="-1.00" shape="2499.600213,2397.154962 2507.820272,2389.617386 2518.747366,2401.757707 2510.100236,2407.186148 2499.600213,2397.154962"/>