<?xml version="1.0" encoding="UTF-8"?>

<!-- generated on Wed Feb  6 15:52:06 2019 by Eclipse SUMO duarouter Version 1.1.0
<configuration xmlns:xsi="http://www.w3.org/2001/XMLSchema-instance" xsi:noNamespaceSchemaLocation="http://sumo.dlr.de/xsd/duarouterConfiguration.xsd">

    <input>
        <net-file value="/usr/local/Cellar/sumo/1.1.0/share/sumo/tools/2019-02-06-15-51-49/osm.net.xml"/>
        <route-files value="/usr/local/Cellar/sumo/1.1.0/share/sumo/tools/2019-02-06-15-51-49/osm.passenger.trips.xml"/>
    </input>

    <output>
        <output-file value="/usr/local/Cellar/sumo/1.1.0/share/sumo/tools/2019-02-06-15-51-49/osm.passenger.rou.xml"/>
        <alternatives-output value="/usr/local/Cellar/sumo/1.1.0/share/sumo/tools/2019-02-06-15-51-49/osm.passenger.rou.alt.xml"/>
    </output>

    <time>
        <begin value="0"/>
        <end value="3600.0"/>
    </time>

    <report>
        <no-warnings value="true"/>
        <ignore-errors value="true"/>
        <no-step-log value="true"/>
    </report>

</configuration>
-->

<routes xmlns:xsi="http://www.w3.org/2001/XMLSchema-instance" xsi:noNamespaceSchemaLocation="http://sumo.dlr.de/xsd/routes_file.xsd">
    <vType id="veh_passenger" vClass="passenger"/>
    <vehicle id="veh0" type="veh_passenger" depart="0.00" departLane="best">
        <route edges="25502921#3 25502921#4 25502921#5 25502942#2 469768614 480045336 517998600 460573535#1 517031505 609032935 627882342 627882349 517031506#0 645338232#0 645338232#1 645338233 235536382 315771482 645338239 151163917#1 3127157 190601551 448984427 25407366 26949920 5009104#1 30372486 330344155 190601547 216122812#0 -53436020 141265297#1 141265297#2 -141263264#1"/>
    </vehicle>
    <vehicle id="veh1" type="veh_passenger" depart="1.37" departLane="best">
        <route edges="123342665#4 208440383 244270739#0 244270739#1 244270739#2 244270739#3 562191406#0 307541272#1 307541272#2 463057029 220387891#0 220387891#1 463057018 463057022#0 463057022#1 463057022#2 463057022#3 463057022#4 460787688#1 460787688#2 460787688#3 460787688#4 460787688#5 460787688#6 654049725 543059990#0 -576410785 -576410787 -161413804 -188791147 -188791146#2 -188791146#1 -188791146#0 -25407493#1 -25407493#0 151157096#0 26949920 5009104#1 30372486 330344155 190601547 216122812#0 -53436020 -646033698#1"/>
    </vehicle>
    <vehicle id="veh2" type="veh_passenger" depart="2.75" departLane="best">
        <route edges="370610341 400216393#0 400216393#1 516884625 516884626 516884623 23505459 31028439 516884620 -516892195 -32752621 -129273989 -351700501 161303910 246109025#1 444316122#0 444316122#1 -543059990#0 -654049725 -541386221#1 -541386221#0 -311903943 -431576781#1 -431576781#0 -431576780 -463057020 232103860#0 463057021 463057026 463057027#1 -307541272#2 -307541272#1 606439155 314405033#0 314405033#1"/>
    </vehicle>
    <vehicle id="veh3" type="veh_passenger" depart="4.12" departLane="best">
        <route edges="53721854 190465815 190601545 8505182 333902146 190601549 333902153 192029053 153147529#1 377833913#1 144871320#0 -640522476 161413804 576410787 431576782 -543059990#0 -654049725 -541386221#1 -541386221#0 -311903943 -431576781#1 -431576781#0 -431576780 -463057020 232103860#0 463057021 463057026 463057027#1 -307541272#2 -307541272#1 606439155 314405033#0 314405033#1 606439158 258130590#0 258130590#2 220387886 208440384 525949279 606439152 161303905#0 163125196#0 163125196#1 487411728#0 487411728#1 -307556942 27471775#0 27471775#1 188476880#0 188476880#1 188476880#2 -217554187#1"/>
    </vehicle>
    <vehicle id="veh4" type="veh_passenger" depart="5.49" departLane="best">
        <route edges="188228387#0 179060068 631613577 631613576 625856812 333891064 3042238#0 3042238#1 3042238#2 45748887#0 45748887#1 21594797#0 21594797#1 143586308#1 -143586308#1"/>
    </vehicle>
    <vehicle id="veh5" type="veh_passenger" depart="6.86" departLane="best">
        <route edges="-5113254 40154352#1 40154352#2 40154352#3 23774300#0 146482573#0 146482573#2 146482573#3 146482573#4 146482573#5 30533027 333891065#0 333891065#1 333891065#3 30616382 189307628#0 40287739#1 189307622 189307625 30412261 23159360#1 23159360#3 23159360#4 333507774#0 333507774#1 143586217 188228391 188228383 143586213#1 143586213#2 143586213#3 179056989 42772469#1 181361656#0 181361656#2 181361656#3 142944290#0 142944290#1 142944290#2 188015317 142944244#1 142944244#2 142944244#3 142944244#4 142944244#5 142944244#6 142944244#7 407196118 142944425#0 142944425#1 23179704 23165593#2 19644867#0 19644867#1 19644867#2"/>
    </vehicle>
    <vehicle id="veh6" type="veh_passenger" depart="8.24" departLane="best" departSpeed="max">
        <route edges="-141179037#3 -141179037#2 -141179037#1 -141179037#0 -141179035#7 -141179035#6 -141179035#5 -141179035#4 -141179035#3 -141179035#2 -141179035#1 -141179035#0 144870968#6 144870968#7 144870968#8 144870968#9 144870968#10 144870968#11 53436020 4928828#1 646033701 216122814#0 216122814#1 190465810 330344157 185992233 190465757 93762556#0 93762556#1 190465787 190465797#0 190465797#1 190465785#0 -23774300#1 23407099 -40154352#2 5113251#0 -5113251#0"/>
    </vehicle>
    <vehicle id="veh7" type="veh_passenger" depart="9.61" departLane="best">
        <route edges="25505536#4 -396739433 -25505536#3 -25505536#2 -25505536#1 -25505536#0 -53721855 -40288842#1 -190601538 23201700 190601541 190465756 190465770#0 26961514 185992233 264963988#0 572415630 53436021 30451267 25469048#1 631613582 631613581 625856813#0 30616382 189307628#0 40287739#1 189307622 189307625 30412261 23159360#1 23159360#3 23159360#4 333507774#0 333507774#1 143586217 188228391 188228383 143586213#1 143586213#2 143586213#3 179056989 42772469#1 181361656#0 181361656#2 181361656#3 142944290#0 142944290#1 142944290#2 188015317 142944244#1 142944244#2 142944244#3 142944244#4 142944244#5 142944244#6 142944244#7 407196118 142944425#0 142944425#1 23179704 23165593#2 19644867#0 19644867#1 19644867#2 26623947#1 26623947#2 -26623996#1 -26623996#0 -18761926#1 -18761926#0 22911254#0"/>
    </vehicle>
    <vehicle id="veh8" type="veh_passenger" depart="10.98" departLane="best">
        <route edges="-516884642 -18570707 471566758 18570739#0 516884640 15910821 30239026 31028439 516884620 -516892195 -32752621 -129273989 -351700501 161303910 246109025#1 444316122#0 444316122#1 -543059990#0 -654049725 -541386221#1 -541386221#0 -311903943 -431576781#1 -431576781#0 -431576780 -463057020 232103860#0 463057021 463057026 463057027#1 -307541272#2 -307541272#1 606439155 314405033#0 314405033#1 606439158 220387889#0 220387889#1 525949274 220387887#0 220387887#1 220387887#2 123342665#1 123342665#3 123342665#4 208440383 244270739#0 244270739#1 244270739#2"/>
    </vehicle>
    <vehicle id="veh9" type="veh_passenger" depart="12.35" departLane="best">
        <route edges="460573534#1 645338225 460573525 518001971 370610341 400216393#0 400216393#1 516884625 516884626 516884623 23505459 31028439 516884620 -516892195 -32752621 -129273989 -351700501 161303910 246109025#1 444316122#0 444316122#1 -543059990#0 -654049725 -541386221#1 -541386221#0 -311903943 -431576781#1 -431576781#0 -431576780 -463057020 232103860#0 463057021 463057026 463057027#1 -307541272#2 -307541272#1 606439155 314405033#0 314405033#1 606439158 220387889#0 220387889#1 525949274 220387887#0 220387887#1 220387887#2 141137045#1 -141137045#2"/>
    </vehicle>
    <vehicle id="veh10" type="veh_passenger" depart="13.73" departLane="best" departSpeed="max">
        <route edges="458542855#0 458542855#2 458542854#0 458542854#1 458542844#0 458542844#1 44530697 215080599 656676189 -8320141#1 -8320141#0 -38563899 -38563900 -152813965#1 111747607#1 111747607#2 111747607#3 111747607#4 554706400#0 247945422#1 152814002#0 152814002#2 244270739#0 244270739#1 244270739#2 244270739#3 562191406#0 307541272#1 307541272#2 463057029 220387891#0 220387891#1 463057018 463057022#0 463057022#1 463057022#2 463057022#3 463057022#4 460787688#1 460787688#2 460787688#3 460787688#4 460787688#5 460787688#6 654049725 543059990#0 451120809#2 451120809#3 463057277 584853313#1 368267186#0 368267186#1 351700501 129273989 32752621 516892195 4272708 516884618#0 516884618#1 516884619 516892199 34330328#0 34330328#1 516884633#0 516884633#2 516884641#0 471566756#0 -471566758 -516884642 333396048#0 333396048#1"/>
    </vehicle>
    <vehicle id="veh12" type="veh_passenger" depart="16.47" departLane="best">
        <route edges="645338232#1 645338233 235536382 315771482 645338239 151163917#1 3127157 190601551 448984427 25407366 26949920 5009104#1 5009104#2 5009104#4 190465756 190465770#0 26961514 185992233 264963988#0 572415630 53436021 30451267 25469048#1 631613582 631613581 625856813#0 179060068 631613577 631613576 625856812 333891064 3042238#0 3042238#1 3042238#2 45748887#0 45748887#1 21594797#0 21594797#1 143586308#1 143586308#2 143586308#3 143586308#4"/>
    </vehicle>
    <vehicle id="veh14" type="veh_passenger" depart="19.22" departLane="best">
        <route edges="4928828#1 132032333 194028632 40288819 40288842#1 8505182 333902146 190601549 333902153 192029053 153147529#1 377833913#1 144871320#0 -640522476 -188791147 -188791146#2 -188791146#1 -188791146#0 -25407493#1 -25407493#0 25407493#0"/>
    </vehicle>
    <vehicle id="veh16" type="veh_passenger" depart="21.96" departLane="best">
        <route edges="217557692#3 220387889#1 525949274 220387887#0 220387887#1 220387887#2 220387887#5 220387887#6 654708419"/>
    </vehicle>
    <vehicle id="veh17" type="veh_passenger" depart="23.34" departLane="best">
        <route edges="153147529#1 377833913#1 144871320#0 -640522476 -188791147 -188791146#2 -188791146#1 -188791146#0 -25407493#1 -25407493#0 151157096#0 26949920 5009104#1 5009104#2 5009104#4 190465756 190465770#0 26961514 185992233 264963988#0 572415630 53436021 30451267 25469048#1 631613582 631613581 625856813#0 30616382 189307628#0 40287739#1 189307622 189307625 30412261 23159360#1 23159360#3"/>
    </vehicle>
    <vehicle id="veh20" type="veh_passenger" depart="27.45" departLane="best">
        <route edges="327109846#1 142944283 142944421#0 142944421#1 188015326 23138735#0 450274067 46239724 152176404#1 23052411#0 23052411#1 60578527 121708051#0 121708051#1 121708051#3 48344707#2 152813966 25444569#0 395272650#1 9702432#0 -381540198#1 -554713073 -554713074 83075269#2 -152176399#2 -152176399#1 -152176399#0"/>
    </vehicle>
    <vehicle id="veh21" type="veh_passenger" depart="28.83" departLane="best">
        <route edges="-543059990#0 543059990#0 -576410785 -576410787 -161413804 -188791147 -188791146#2 -188791146#1 -188791146#0 -25407493#1 -25407493#0 151157096#0 26949920 5009104#1 30372486 330344155 190601547 216122812#0 -53436020 141265297#1 141265297#2 -141263264#1 141263264#1"/>
    </vehicle>
    <vehicle id="veh22" type="veh_passenger" depart="30.20" departLane="best">
        <route edges="-190465779#1 -190465779#0 190465772 8496681#1 24717289 190465763 53436021 30451267 25469048#1 631613582 631613581 625856813#0 30616382 189307628#0 40287739#1 189307622 189307625 30412261 23159360#1 23159360#3 23159360#4 333507774#0 333507774#1 143586217 188228391 188228383 143586206 142944546#1 142944546#2 43145612#0 43145612#1 458320761#0 -458542845#1 -606439134 -659691578"/>
    </vehicle>
    <vehicle id="veh23" type="veh_passenger" depart="31.57" departLane="best">
        <route edges="-22701043#2 22701043#2 22701043#3 -22700416#1 -22700416#0 23165590#0 23165590#1 228186366#0 228186366#1 228186366#2 43145613#0 43145613#1 43145613#2 184627082#1 142944558 188015329 188015330#1 142944258 43145614#0 143586195#0 143586195#1 143586318#0 637815817#0 637815817#2 637815817#3 637815817#4 637815817#6 637815817#7 30412260 23190865 53721857 188228388 188228389 188228381#0 188228390 36268330#0 36268330#1 188228382 188228387#0 179060064#0 179060064#1 188228392 190465753#0 26961484 8484620 53721854 190465815 190601545 -40288842#1 -190601538 -194028632 194028631 194028630 216122812#0 23201600#0 23201600#1 23201600#2 23201600#3 23201600#4 23201600#5 23201600#6 23201600#7 23201600#8 23201600#9 23201600#10 23201600#11 23201600#12 144870968#0 141179035#0 141179035#1 141179035#2"/>
    </vehicle>
    <vehicle id="veh24" type="veh_passenger" depart="32.95" departLane="best">
        <route edges="25502117 5823604 5823609 25502942#0 25502942#1 25502942#2 469768614 480045336 517998600 460573535#1 517031505 609032935 627882342 627882349 517031506#0 645338232#0 645338232#1 645338233 235536382 315771482 645338239 151163917#1 3127157 190601551 448984427 25407366 26949920 5009104#1 5009104#2 5009104#4 190465756 190465770#0 26961514 185992233 264963988#0 572415630 26961484 178064081 192027797 190465759 21521128 192029053 153147529#1"/>
    </vehicle>
    <vehicle id="veh25" type="veh_passenger" depart="34.32" departLane="best">
        <route edges="152176400#2 554713068#0 60578531#1 -554713067 -152176404#1 -46239724 -450274067 -23138735#0 142944424 188015327#0 43145614#0 143586195#0 143586195#1 143586318#0 637815817#0 637815817#2 637815817#3 637815817#4 637815817#6 637815817#7 30412260 23190865 53721857 188228388 188228389 188228381#0 188228390 36268330#0 36268330#1 188228382 188228387#0 179060064#0 179060064#1 188228392 190465753#0 26961484 8484620 53721854 190465815 190601545 8505182 8505170 333902145#0 333902145#1 333902145#2 333902145#3 333902145#4 333878195 604487633 -604487632#0"/>
    </vehicle>
    <vehicle id="veh26" type="veh_passenger" depart="35.69" departLane="best">
        <route edges="118756784 190581795 143586334#0 143586334#1 143586355#0 143586355#1 143586355#2 143586355#3 143586355#4 143586355#5 143586355#6 10605378 23159360#1 23159360#3 23159360#4 333507774#0 333507774#1 143586217 188228391 188228383 143586213#1 143586213#2 143586213#3 179056989 42772469#1 181361656#0 181361656#2 142944295#2 188015324#0 143586195#0 143586195#1 143586318#0 637815817#0 637815817#2 637815817#3 637815817#4 637815817#6 637815817#7 30412260 23190865 53721857 188228388 188228389 188228381#0 188228390 36268330#0 36268330#1 188228382 188228387#0 179060064#0 179060064#1 188228392 190465753#0 26961484 178064081 192027797 190465759 21521128 192029053 153147529#1 377833913#1 26949916 190586232 190586255 645338237 8508652 645338235 645338236#0 645338236#1 645338229 460573525 627882342 627882349"/>
    </vehicle>
    <vehicle id="veh27" type="veh_passenger" depart="37.06" departLane="best">
        <route edges="25505536#0 -25505536#0 -53721855 -40288842#1 -190601538 23201700 190601541 190465756 190465770#0 26961514 185992233 264963988#0 572415630 53436021 30451267 25469048#1"/>
    </vehicle>
    <vehicle id="veh29" type="veh_passenger" depart="39.81" departLane="best">
        <route edges="-40150503#2 -40150503#1 26773464#1 26773464#2 26773464#4 4928828#1 132032333 194028632 40288819 40288842#1 8505182 333902146 190601549 333902153 192029053 153147529#1 377833913#1 26949916 190586232 190586255 645338237 8508652 645338235 645338236#0 645338236#1 645338229 460573525 518001971 370610341 206628174#0 206628174#1 516884630 -516884629 -516884628 -174302038 174302038"/>
    </vehicle>
    <vehicle id="veh32" type="veh_passenger" depart="43.93" departLane="best">
        <route edges="-554713073 554713073 381540198#0 193847534#1 554713072 83075275#0 83075275#2 60578532#1 554713069 60578531#1 -554713067 -152176404#1 -46239724 -450274067 -23138735#0 142944424 188015327#0 43145614#0 143586195#0 143586195#1 143586318#0 637815817#0 637815817#2 637815817#3 637815817#4 637815817#6 637815817#7 30412260 23190865 53721857 188228388 188228389 188228381#0 188228390 36268330#0 -333890926 -21594233#5 -21594233#4 3042236#1 3042236#2 3042236#3 3042236#5 3042236#6 45748887#0 45748887#1 21594797#0 21594797#1 143586308#1 143586308#2 143586308#3 -143586308#3"/>
    </vehicle>
    <vehicle id="veh33" type="veh_passenger" depart="45.30" departLane="best">
        <route edges="142944283 142944421#0 142944421#1 188015326 23138735#0 450274067 46239724 152176404#1 554713067 152176400#2 554713068#0 60578547#1 604905863#0 26949512#1 141137045#1"/>
    </vehicle>
    <vehicle id="veh35" type="veh_passenger" depart="48.05" departLane="best">
        <route edges="516884641#0 471566756#0 18570739#0 516884640 22774089 174302038 516884628 516884629 370610345#0 370610345#1 370610344 460573535#0 460573535#1 517031505 609032935 627882342 627882349 517031506#0 645338232#0 645338232#1 645338233 235536382 315771482 645338239 151163917#1 3127157 190601551 448984427 25407366 26949920 5009104#1 5009104#2 5009104#4 190465756 190465770#0 26961514 185992233 264963988#0 572415630 53436021 30451267 25469048#1 631613582 631613581 625856813#0 30616382 189307628#0 40287739#1 189307622 189307625 30412261 23159360#1 23159360#3 23159360#4 333507774#0 333507774#1 143586217 188228391 188228383 143586213#1 143586213#2 143586213#3 179056989 42772469#1 181361656#0 181361656#2 181361656#3 142944253#2 142944552"/>
    </vehicle>
    <vehicle id="veh36" type="veh_passenger" depart="49.42" departLane="best">
        <route edges="26773464#1 26773464#2 26773464#4 4928828#1 646033701 216122814#0 216122814#1 190465810 330344157 185992233 264963988#0 572415630 53436021 30451267 25469048#1 631613582 631613581 625856813#0 30616382 189307628#0 40287739#1 189307622 189307625 30412261 23159360#1 23159360#3 23159360#4 333507774#0 333507774#1 143586217 188228391 188228383 143586213#1 143586213#2 143586213#3 179056989 42772469#1 181361656#0 181361656#2 181361656#3 142944290#0 142944290#1 142944290#2 188015317 142944244#1 142944244#2 142944244#3 142944244#4 142944244#5 142944244#6 142944244#7 407196118 142944425#0 142944425#1 23179704 23165593#2 19644867#0 19644867#1 19644867#2 26623947#1 26623947#2 -26623996#1 -26623996#0 -18761926#1 18761926#1"/>
    </vehicle>
    <vehicle id="veh37" type="veh_passenger" depart="50.79" departLane="best" departSpeed="max">
        <route edges="584225676 584225675 493493233 -204552620 204552608#1 444316122#1 -576410785 -576410787 -161413804 -188791147 -188791146#2 -188791146#1 -188791146#0 -25407493#1 -25407493#0 151157096#0 26949920 5009104#1 5009104#2 5009104#4 190465756 190465770#0 26961514 185992233 190465757 93762556#0 93762556#1 190465787 190465797#0 190465797#1 190465785#0 190465791#0 190465783#0 190465790#1 190465788#0"/>
    </vehicle>
    <vehicle id="veh38" type="veh_passenger" depart="52.16" departLane="best">
        <route edges="111747607#2 111747607#3 111747607#4 554706400#0 247945422#1 152814002#0 152814002#2 210979056 122663598#0 122663598#1 220387887#0 220387887#1 220387887#2 220387887#5 220387887#6 654708419 239479777 239479767#0 60578531#1 -554713067 -152176404#1 -46239724 -450274067 -23138735#0 142944424 188015327#0 43145614#0 143586195#0 143586195#1 143586333 118756784 190581795 143586334#0 143586334#1 143586355#0 143586355#1 143586355#2 143586355#3 143586355#4 143586355#5 143586355#6 10605378 23159360#1 23159360#3 23159360#4 333507774#0 333507774#1 143586217 188228391 188228383 -46102577#0 10577351"/>
    </vehicle>
    <vehicle id="veh39" type="veh_passenger" depart="53.54" departLane="best">
        <route edges="22911254#1 -22911254#1 -22911254#0 606439133 142944231 659691578 606439134 458542845#0 24438744#1 24438744#2 24438744#3 184627082#0 184627082#1 142944558 188015329 188015330#1 142944258 43145614#0 143586195#0 143586195#1 143586318#0 637815817#0 637815817#2 637815817#3 637815817#4 637815817#6 637815817#7 30412260 23190865 53721857 188228388 188228389 188228381#0 188228390 36268330#0 -333890926 -21594233#5 -21594233#4 3042236#1 3042236#2 3042236#3 3042236#5 3042236#6 45748887#0 45748887#1 151233865 425050767#1 131675656#0 131675656#1 131675656#2"/>
    </vehicle>
    <vehicle id="veh40" type="veh_passenger" depart="54.91" departLane="best">
        <route edges="23201239#2 23201239#3 23201239#4 23201239#5 646033699 646033698#0 53436020 4928828#1 646033701 216122814#0 216122814#1 190465810 330344157 185992233 264963988#0 572415630 53436021 30451267 25469048#1 631613582 631613581 625856813#0 30616382 189307628#0 40287739#1 189307622 189307625 30412261 23159360#1 23159360#3 23159360#4 333507774#0 333507774#1 143586217 188228391 188228383 143586213#1 143586213#2 143586213#3 179056989 42772469#1 181361656#0 181361656#2 142944295#2 188015324#0 143586195#0 143586195#1 143586318#0 637815817#0 637815817#2 637815817#3 637815817#4 637815817#6 637815817#7 30412260 23190865 53721857"/>
    </vehicle>
    <vehicle id="veh41" type="veh_passenger" depart="56.28" departLane="best">
        <route edges="179060068 631613577 631613576 625856812 333891065#0 333891065#1 333891065#3 179060064#0 179060064#1 188228392 190465753#0 26961484 178064081 192027797 190465759 21521128 192029053 153147529#1 377833913#1 144871320#0 -640522476 161413804 576410787 431576782 451120809#2 451120809#3 463057277 584853313#1 368267186#0 368267186#1 161303910 246109025#1 444316122#0 -204552608#1 -204552608#0 446704734#1 -607492167"/>
    </vehicle>
    <vehicle id="veh42" type="veh_passenger" depart="57.65" departLane="best">
        <route edges="9783228 25400473#1 10304101 25478265 9702432#0 -381540198#1 -554713073 -554713074 83075269#2 307556944#0 307556944#1 247945422#1 152814002#0 152814002#2 210979056"/>
    </vehicle>
    <vehicle id="veh43" type="veh_passenger" depart="59.03" departLane="best">
        <route edges="-215080599 215080599 656676189 -8320141#1 -8320141#0 -38563899 -38563900 -152813965#1 395272650#1 9702432#0 -381540198#1 -554713073 -554713074 83075269#2 -152176399#2 -152176399#1 -152176399#0"/>
    </vehicle>
    <vehicle id="veh44" type="veh_passenger" depart="60.40" departLane="best">
        <route edges="-23138735#0 23138735#0 450274067 46239724 152176404#1 554713067 152176400#2 554713068#0 60578547#1 604905863#0 26949512#1 123342665#1 123342665#3 123342665#4 208440383 244270739#0 244270739#1 244270739#2 244270739#3 562191406#0 606439155 314405033#0 314405033#1 606439158 258130590#0 258130590#2"/>
    </vehicle>
    <vehicle id="veh45" type="veh_passenger" depart="61.77" departLane="best" departSpeed="max">
        <route edges="458117703 607492167 -446704734#2 -204552620 204552608#1 444316122#1 -543059990#0 -654049725 -541386221#1 -541386221#0 -311903943 -431576781#1 -431576781#0 -431576780 -463057020 232103860#0 463057021 463057026 463057027#1 -307541272#2 -307541272#1 606439155 314405033#0 314405033#1 606439158 220387889#0 220387889#1 525949274 220387887#0 220387887#1 220387887#2 220387887#5 220387887#6 141137046#1 141137046#3 141137047#0 188473744"/>
    </vehicle>
    <vehicle id="veh46" type="veh_passenger" depart="63.14" departLane="best">
        <route edges="-178065184 -146481665#2 -146481665#1 -146481665#0 -39972604#2 -39972604#1 31023169#1 31023169#2 25485694 190465790#1 190465788#0 30996866#0 190465793 25469034 190465798#0 190465798#2 190465795 24717289 190465763 26961484 178064081 192027797 190465759 21521128 192029053 153147529#1 377833913#1 26949916 190586232 190586255 645338237 8508652 645338235 645338236#0 645338236#1 645338229 460573525 518001971 370610341 400216393#0 400216393#1 516884625 516884626 516884623 23505459 31028440 16168075#0 16168075#1 16168075#2 174302041#0 174302041#1"/>
    </vehicle>
    <vehicle id="veh47" type="veh_passenger" depart="64.52" departLane="best">
        <route edges="9780341#1 -9780341#1 -9780341#0 -38563899 -38563900 -152813965#1 111747607#1 111747607#2 111747607#3 111747607#4 554706400#0 247945422#1 152814002#0 152814002#2 244270739#0 244270739#1 244270739#2 244270739#3 562191406#0 606439155 314405033#0 314405033#1 606439158 220387889#0"/>
    </vehicle>
    <vehicle id="veh48" type="veh_passenger" depart="65.89" departLane="best" departSpeed="max">
        <route edges="653756291#0 653756292 47365571 653756253 653756256 190465819 31023285#1 513471445"/>
    </vehicle>
    <vehicle id="veh49" type="veh_passenger" depart="67.26" departLane="best">
        <route edges="-141137047#0 -141137046#3 -141137046#2 26949512#1 123342665#1 123342665#3 123342665#4 208440383 244270739#0 244270739#1 244270739#2 244270739#3 562191406#0 307541272#1 307541272#2 463057029 220387891#0 220387891#1 463057018 463057022#0 463057022#1 463057022#2 463057022#3 463057022#4 460787688#1 460787688#2 460787688#3 460787688#4 460787688#5 460787688#6 654049725 543059990#0 451120809#2 451120809#3 463057277 584853313#1 368267186#0 368267186#1 351700501"/>
    </vehicle>
    <vehicle id="veh50" type="veh_passenger" depart="68.64" departLane="best">
        <route edges="111747607#4 554706400#0 247945422#1 152814002#0 152814002#2 244270739#0 244270739#1 244270739#2 244270739#3 562191406#0 307541272#1 307541272#2 463057029 220387891#0 220387891#1 463057018 463057022#0 463057022#1 463057022#2 463057022#3 463057022#4 460787688#1 460787688#2 460787688#3 460787688#4 460787688#5 460787688#6 654049725 543059990#0 451120809#2 451120809#3 463057277 584853313#1 368267186#0 368267186#1 351700501 129273989 32752621 516892195 4272708 516884618#0 516884618#1 516884619 516892199 34330328#0 34330328#1 516884633#0 516884633#2 516884639#0 15910821 30239026"/>
    </vehicle>
    <vehicle id="veh51" type="veh_passenger" depart="70.01" departLane="best">
        <route edges="-23165590#1 23165590#1 228186366#0 228186366#1 228186366#2 43145613#0 43145613#1 43145613#2 184627082#1 142944558 188015329 188015330#1 142944258 43145614#0 143586195#0 143586195#1 143586318#0 637815817#0 637815817#2 637815817#3 637815817#4 637815817#6 637815817#7 30412260 23190865 53721857 188228388 188228389 188228381#0 188228390 36268330#0 36268330#1 188228382 188228387#0 30616382 189307628#0"/>
    </vehicle>
    <vehicle id="veh52" type="veh_passenger" depart="71.38" departLane="best">
        <route edges="190465756 190465770#0 26961514 185992233 264963988#0 572415630 26961484 178064081 192027797 190465759 21521128 192029053 153147529#1 377833913#1 26949916 190586232 190586255 645338237 8508652 645338235 188822506#0 188822506#1 645338233 235536382 -518004768 645338224 460573534#0 460573534#1 645338225"/>
    </vehicle>
    <vehicle id="veh53" type="veh_passenger" depart="72.75" departLane="best">
        <route edges="516884640 22774089 174302038 516884628 516884629 370610345#0 370610345#1 370610344 460573535#0 460573535#1 517031505 609032935 627882342 627882349 517031506#0 645338232#0 645338232#1 645338233 235536382 315771482 645338239 151163917#1 3127157 190601551 448984427 25407366 26949920 5009104#1 30372486 330344155 190601547 216122812#0 4928828#1 132032333"/>
    </vehicle>
    <vehicle id="veh54" type="veh_passenger" depart="74.13" departLane="best">
        <route edges="190586255 645338237 8508652 645338235 645338236#0 645338236#1 645338229 460573525 518001971 370610341 400216393#0 400216393#1 516884625 516884626 516884623 23505459 31028439 516884620 -516892195 -32752621 -129273989 -351700501 161303910 246109025#1 444316122#0 -204552608#1 -204552608#0 446704734#1 -446704734#2"/>
    </vehicle>
    <vehicle id="veh55" type="veh_passenger" depart="75.50" departLane="best" departSpeed="max">
        <route edges="584225676 584225675 493493233 -204552620 204552608#1 444316122#1 451120809#2 451120809#3 463057277 584853313#1 368267186#0 368267186#1 351700501 129273989 32752621 516892195 4272708 516884618#0 516884618#1 516884619 516892199 34330328#0 34330328#1 516884633#0 516884633#2"/>
    </vehicle>
    <vehicle id="veh56" type="veh_passenger" depart="76.87" departLane="best" departSpeed="max">
        <route edges="141261874#0 141261874#1 141261874#2 -53721850 -53436293 144870968#0 144870968#6 144870968#7 144870968#8 144870968#9 144870968#10 144870968#11 53436020 4928828#1 646033701 216122814#0 216122814#1 190465810 330344157 185992233 264963988#0 572415630 53436021 30451267 25469048#1 631613582 631613581 625856813#0 30616382 189307628#0 40287739#1 189307622 189307625 30412261 23159360#1 23159360#3 23159360#4 333507774#0 333507774#1 143586217 188228391 188228383 143586213#1 143586213#2 143586213#3 179056989 42772469#1 181361656#0 181361656#2 181361656#3 142944253#2 142944283 142944421#0 142944421#1 188015326 23138735#0 450274067 46239724 152176404#1 23052411#0 23052411#1 60578527 121708051#0 121708051#1 121708051#3 48344707#2 152813966 25444569#0 395272650#1 9702432#0 -381540198#1 -554713073 -554713074 83075269#2 -307556942 27471775#0"/>
    </vehicle>
    <vehicle id="veh57" type="veh_passenger" depart="78.24" departLane="best">
        <route edges="244270739#3 562191406#0 606439155 314405033#0 314405033#1 606439158 258130590#0 258130590#2 220387886 208440384 525949279 606439152 161303905#0 463670811#1 463670811#2 606439138 606439135#0 606439135#1 554713070 554706401#0 554706401#1 395272650#1 -25400603 -10304101 -25400473#1 -25400480 -372449106"/>
    </vehicle>
    <vehicle id="veh59" type="veh_passenger" depart="80.99" departLane="best">
        <route edges="446704735#0 446704735#1 446704735#2 307541272#1 307541272#2 463057029 220387891#0"/>
    </vehicle>
    <vehicle id="veh60" type="veh_passenger" depart="82.36" departLane="best">
        <route edges="-121708058#1 -554713067 -152176404#1 -46239724 -450274067 -23138735#0 142944424 188015327#0 43145614#0 143586195#0 143586195#1 143586333 118756784 190581795 143586334#0 143586334#1 143586355#0 143586355#1 143586355#2 143586355#3 143586355#4 143586355#5 143586355#6 10605378 23159360#1 23159360#3 23159360#4 333507774#0 333507774#1 143586217"/>
    </vehicle>
    <vehicle id="veh61" type="veh_passenger" depart="83.74" departLane="best">
        <route edges="-141179035#3 -141179035#2 -141179035#1 -141179035#0 144870968#6 144870968#7 144870968#8 144870968#9 144870968#10 144870968#11 53436020 4928828#1 132032333 194028632 40288819 40288842#1 8505182 333902146 190601549 333902153 192029053 153147529#1 377833913#1 144871320#0 -640522476 161413804 576410787 431576782 -543059990#0 -654049725 -541386221#1 -541386221#0 -311903943 -431576781#1 -431576781#0 -431576780 -463057020 232103860#0 463057021 463057026 463057027#1 -307541272#2 -307541272#1 606439155 314405033#0 314405033#1 606439158"/>
    </vehicle>