<?xml version="1.0" encoding="UTF-8"?>
<!-- generated on 2019-02-06 15:52:32.508943 by $Id$ via randomTrips.py
  options: 
-->
<routes xmlns:xsi="http://www.w3.org/2001/XMLSchema-instance" xsi:noNamespaceSchemaLocation="http://sumo.dlr.de/xsd/routes_file.xsd">
    <vType id="moto_motorcycle" vClass="motorcycle">
    </vType>
    <trip id="moto0" depart="0.00" departLane="best" from="-141179035#6" to="-446704734#2" type="moto_motorcycle"/>
    <trip id="moto1" depart="4.12" departLane="best" from="-463057022#2" to="23201600#4" type="moto_motorcycle"/>
    <trip id="moto2" depart="8.24" departLane="best" departSpeed="max" from="458117703" to="315771480#0" type="moto_motorcycle"/>
    <trip id="moto3" depart="12.35" departLane="best" from="-190465817#6" to="-21594233#4" type="moto_motorcycle"/>
    <trip id="moto4" depart="16.47" departLane="best" from="48344707#2" to="24282865#0" type="moto_motorcycle"/>
    <trip id="moto5" depart="20.59" departLane="best" from="463057022#0" to="25197931#0" type="moto_motorcycle"/>
    <trip id="moto6" depart="24.71" departLane="best" from="25469034" to="143586280#3" type="moto_motorcycle"/>
    <trip id="moto7" depart="28.83" departLane="best" from="143586213#1" to="-463057020" type="moto_motorcycle"/>
    <trip id="moto8" depart="32.95" departLane="best" departSpeed="max" from="-656299984#1" to="627882342" type="moto_motorcycle"/>
    <trip id="moto9" depart="37.06" departLane="best" from="-333902145#0" to="333902146" type="moto_motorcycle"/>
    <trip id="moto10" depart="41.18" departLane="best" from="-190465817#3" to="-143586355#2" type="moto_motorcycle"/>
    <trip id="moto11" depart="45.30" departLane="best" departSpeed="max" from="-656299984#1" to="25503166#3" type="moto_motorcycle"/>
    <trip id="moto12" depart="49.42" departLane="best" from="-22701043#2" to="184627082#1" type="moto_motorcycle"/>
    <trip id="moto13" depart="53.54" departLane="best" from="5823609" to="516884618#1" type="moto_motorcycle"/>
    <trip id="moto14" depart="57.65" departLane="best" from="23774300#0" to="-3042236#6" type="moto_motorcycle"/>
    <trip id="moto15" depart="61.77" departLane="best" departSpeed="max" from="-190465775#1" to="190465797#1" type="moto_motorcycle"/>
    <trip id="moto16" depart="65.89" departLane="best" from="40150503#2" to="-24996349#4" type="moto_motorcycle"/>
    <trip id="moto17" depart="70.01" departLane="best" from="15910821" to="-463057022#2" type="moto_motorcycle"/>
    <trip id="moto18" depart="74.13" departLane="best" from="216122812#0" to="333902153" type="moto_motorcycle"/>
    <trip id="moto19" depart="78.24" departLane="best" from="141263264#1" to="23201600#3" type="moto_motorcycle"/>
    <trip id="moto20" depart="82.36" departLane="best" from="-5007495#0" to="-5007495#2" type="moto_motorcycle"/>
    <trip id="moto21" depart="86.48" departLane="best" from="-174302041#3" to="25501984" type="moto_motorcycle"/>
    <trip id="moto22" depart="90.60" departLane="best" departSpeed="max" from="495246282" to="-18761926#0" type="moto_motorcycle"/>
    <trip id="moto23" depart="94.72" departLane="best" from="-46102577#0" to="-25400603" type="moto_motorcycle"/>
    <trip id="moto24" depart="98.84" departLane="best" from="188822506#0" to="431576781#0" type="moto_motorcycle"/>
    <trip id="moto25" depart="102.95" departLane="best" from="458320759" to="-419279932#0" type="moto_motorcycle"/>
    <trip id="moto26" depart="107.07" departLane="best" from="-204552620" to="180326068#0" type="moto_motorcycle"/>
    <trip id="moto28" depart="115.31" departLane="best" from="-40150576#1" to="188228382" type="moto_motorcycle"/>
    <trip id="moto29" depart="119.43" departLane="best" from="157109027#0" to="111747607#2" type="moto_motorcycle"/>
    <trip id="moto30" depart="123.54" departLane="best" from="-554713074" to="60578532#1" type="moto_motorcycle"/>
    <trip id="moto31" depart="127.66" departLane="best" from="220387887#5" to="-146276277#2" type="moto_motorcycle"/>
    <trip id="moto32" depart="131.78" departLane="best" departSpeed="max" from="9897177" to="463929523#0" type="moto_motorcycle"/>
    <trip id="moto33" depart="135.90" departLane="best" from="485685534#1" to="-333878195" type="moto_motorcycle"/>
    <trip id="moto34" depart="140.02" departLane="best" from="23201600#10" to="30533027" type="moto_motorcycle"/>
    <trip id="moto35" depart="144.14" departLane="best" departSpeed="max" from="-5113251#1" to="-23201239#2" type="moto_motorcycle"/>
    <trip id="moto36" depart="148.25" departLane="best" from="517998600" to="-607492167" type="moto_motorcycle"/>
    <trip id="moto37" depart="152.37" departLane="best" departSpeed="max" from="-45729834#2" to="331478129#2" type="moto_motorcycle"/>
    <trip id="moto38" depart="156.49" departLane="best" from="26949512#1" to="141137045#3" type="moto_motorcycle"/>
    <trip id="moto39" depart="160.61" departLane="best" from="9783228" to="9780340" type="moto_motorcycle"/>
    <trip id="moto40" depart="164.73" departLane="best" from="-18570957#0" to="-469768614" type="moto_motorcycle"/>
    <trip id="moto42" depart="172.96" departLane="best" from="516884639#0" to="516884640" type="moto_motorcycle"/>
    <trip id="moto43" depart="177.08" departLane="best" from="143586206" to="-307556942" type="moto_motorcycle"/>
    <trip id="moto44" depart="181.20" departLane="best" from="264963988#0" to="631613581" type="moto_motorcycle"/>
    <trip id="moto45" depart="185.32" departLane="best" departSpeed="max" from="-8298127#1" to="244270739#0" type="moto_motorcycle"/>
    <trip id="moto46" depart="189.43" departLane="best" from="330344155" to="-460787688#0" type="moto_motorcycle"/>
    <trip id="moto47" depart="193.55" departLane="best" from="25478265" to="-8320141#1" type="moto_motorcycle"/>
    <trip id="moto48" depart="197.67" departLane="best" from="34330328#1" to="22761543#0" type="moto_motorcycle"/>
    <trip id="moto49" depart="201.79" departLane="best" from="554713069" to="22700416#1" type="moto_motorcycle"/>
    <trip id="moto50" depart="205.91" departLane="best" from="463057277" to="23201239#4" type="moto_motorcycle"/>
    <trip id="moto51" depart="210.03" departLane="best" from="541386221#1" to="-463057022#0" type="moto_motorcycle"/>
    <trip id="moto52" depart="214.14" departLane="best" from="-554713073" to="-217558040" type="moto_motorcycle"/>
    <trip id="moto53" depart="218.26" departLane="best" from="188228387#0" to="141179035#0" type="moto_motorcycle"/>
    <trip id="moto55" depart="226.50" departLane="best" from="654708414" to="-38563899" type="moto_motorcycle"/>
    <trip id="moto56" depart="230.62" departLane="best" from="-22700416#0" to="184627082#0" type="moto_motorcycle"/>
    <trip id="moto57" depart="234.73" departLane="best" from="233756781" to="193847534#1" type="moto_motorcycle"/>
    <trip id="moto58" depart="238.85" departLane="best" from="143586350#1" to="23179673#1" type="moto_motorcycle"/>
    <trip id="moto59" depart="242.97" departLane="best" from="-606439133" to="331478122#0" type="moto_motorcycle"/>
    <trip id="moto60" depart="247.09" departLane="best" from="-121708075" to="606439134" type="moto_motorcycle"/>
    <trip id="moto61" depart="251.21" departLane="best" departSpeed="max" from="21595198" to="333507774#0" type="moto_motorcycle"/>
    <trip id="moto62" depart="255.33" departLane="best" from="264963989" to="142704128#0" type="moto_motorcycle"/>
    <trip id="moto63" depart="259.44" departLane="best" from="33041313#1" to="141137045#4" type="moto_motorcycle"/>
    <trip id="moto64" depart="263.56" departLane="best" from="146482573#3" to="139785377#3" type="moto_motorcycle"/>
    <trip id="moto65" depart="267.68" departLane="best" from="123342665#3" to="22701043#2" type="moto_motorcycle"/>
    <trip id="moto66" depart="271.80" departLane="best" from="-10304101" to="122663598#1" type="moto_motorcycle"/>
    <trip id="moto67" depart="275.92" departLane="best" from="25503166#3" to="188822506#1" type="moto_motorcycle"/>
    <trip id="moto69" depart="284.15" departLane="best" from="26949920" to="-516884625" type="moto_motorcycle"/>
    <trip id="moto70" depart="288.27" departLane="best" from="-53721850" to="190465775#1" type="moto_motorcycle"/>
    <trip id="moto71" depart="292.39" departLane="best" from="487411728#0" to="-188476880#1" type="moto_motorcycle"/>
    <trip id="moto72" depart="296.51" departLane="best" from="-348251627#1" to="645338236#0" type="moto_motorcycle"/>
    <trip id="moto73" depart="300.62" departLane="best" from="188015329" to="45729831#0" type="moto_motorcycle"/>
    <trip id="moto74" depart="304.74" departLane="best" from="189307625" to="-82410227#0" type="moto_motorcycle"/>
    <trip id="moto75" depart="308.86" departLane="best" from="-541386221#1" to="25502942#0" type="moto_motorcycle"/>
    <trip id="moto76" depart="312.98" departLane="best" from="-188476880#0" to="121708075" type="moto_motorcycle"/>
    <trip id="moto77" depart="317.10" departLane="best" from="3127157" to="-174302038" type="moto_motorcycle"/>
    <trip id="moto78" depart="321.22" departLane="best" departSpeed="max" from="152176399#0" to="220387889#0" type="moto_motorcycle"/>
    <trip id="moto79" depart="325.33" departLane="best" from="23165593#4" to="314405033#0" type="moto_motorcycle"/>
    <trip id="moto80" depart="329.45" departLane="best" from="4928824" to="40287739#1" type="moto_motorcycle"/>
    <trip id="moto81" depart="333.57" departLane="best" from="217558037" to="24282865#0" type="moto_motorcycle"/>
    <trip id="moto82" depart="337.69" departLane="best" from="174302041#1" to="-141179036#3" type="moto_motorcycle"/>
    <trip id="moto83" depart="341.81" departLane="best" from="151157096#0" to="-333396048#1" type="moto_motorcycle"/>
    <trip id="moto84" depart="345.92" departLane="best" from="-141179035#7" to="25503166#5" type="moto_motorcycle"/>
    <trip id="moto85" depart="350.04" departLane="best" from="-143586350#1" to="143586355#4" type="moto_motorcycle"/>
    <trip id="moto86" depart="354.16" departLane="best" from="-460787688#5" to="141263264#0" type="moto_motorcycle"/>
    <trip id="moto87" depart="358.28" departLane="best" from="-604487632#0" to="-190465817#2" type="moto_motorcycle"/>
    <trip id="moto88" depart="362.40" departLane="best" departSpeed="max" from="9897177" to="142944424" type="moto_motorcycle"/>
    <trip id="moto89" depart="366.52" departLane="best" from="637815817#6" to="-450274067" type="moto_motorcycle"/>
    <trip id="moto91" depart="374.75" departLane="best" from="141137045#3" to="307541272#2" type="moto_motorcycle"/>
    <trip id="moto92" depart="378.87" departLane="best" from="32752621" to="-188791146#1" type="moto_motorcycle"/>
    <trip id="moto93" depart="382.99" departLane="best" from="487411728#1" to="239479767#0" type="moto_motorcycle"/>
    <trip id="moto94" depart="387.11" departLane="best" from="190581793#0" to="142944258" type="moto_motorcycle"/>
    <trip id="moto95" depart="391.22" departLane="best" from="487411728#0" to="46102582" type="moto_motorcycle"/>
    <trip id="moto96" depart="395.34" departLane="best" from="333891065#0" to="653756292" type="moto_motorcycle"/>
    <trip id="moto97" depart="399.46" departLane="best" from="-662506168#1" to="458542844#1" type="moto_motorcycle"/>
    <trip id="moto98" depart="403.58" departLane="best" departSpeed="max" from="21595198" to="190465791#0" type="moto_motorcycle"/>
    <trip id="moto99" depart="407.70" departLane="best" from="174302041#0" to="34330328#0" type="moto_motorcycle"/>
    <trip id="moto100" depart="411.81" departLane="best" from="190465787" to="40150503#3" type="moto_motorcycle"/>
    <trip id="moto101" depart="415.93" departLane="best" from="21521128" to="174302041#1" type="moto_motorcycle"/>
    <trip id="moto102" depart="420.05" departLane="best" from="-576410787" to="-23201239#3" type="moto_motorcycle"/>
    <trip id="moto103" depart="424.17" departLane="best" from="21594233#5" to="40154352#1" type="moto_motorcycle"/>
    <trip id="moto104" depart="428.29" departLane="best" from="190465779#0" to="333891065#1" type="moto_motorcycle"/>
    <trip id="moto105" depart="432.41" departLane="best" from="8298127#0" to="21591353#0" type="moto_motorcycle"/>
    <trip id="moto106" depart="436.52" departLane="best" from="-9780341#0" to="-217557693#2" type="moto_motorcycle"/>
    <trip id="moto108" depart="444.76" departLane="best" from="188476880#2" to="188015318#0" type="moto_motorcycle"/>
    <trip id="moto109" depart="448.88" departLane="best" from="631613576" to="190465779#1" type="moto_motorcycle"/>
    <trip id="moto110" depart="453.00" departLane="best" from="-18570957#1" to="25501955#0" type="moto_motorcycle"/>
    <trip id="moto111" depart="457.11" departLane="best" from="444316122#0" to="-516884628" type="moto_motorcycle"/>
    <trip id="moto112" depart="461.23" departLane="best" from="8505170" to="141179035#0" type="moto_motorcycle"/>
    <trip id="moto113" depart="465.35" departLane="best" from="333902153" to="640522476" type="moto_motorcycle"/>
    <trip id="moto114" depart="469.47" departLane="best" from="-333902145#4" to="-188791146#0" type="moto_motorcycle"/>
    <trip id="moto116" depart="477.71" departLane="best" from="16091890#2" to="220387891#1" type="moto_motorcycle"/>
    <trip id="moto117" depart="481.82" departLane="best" from="631613581" to="190581798#1" type="moto_motorcycle"/>
    <trip id="moto118" depart="485.94" departLane="best" from="190465798#0" to="-190465779#2" type="moto_motorcycle"/>
    <trip id="moto119" depart="490.06" departLane="best" from="141179035#14" to="-645284559#2" type="moto_motorcycle"/>
    <trip id="moto120" depart="494.18" departLane="best" from="-190465817#4" to="646033698#0" type="moto_motorcycle"/>
    <trip id="moto121" depart="498.30" departLane="best" from="463670811#2" to="23179553#0" type="moto_motorcycle"/>
    <trip id="moto122" depart="502.41" departLane="best" from="26949916" to="-8505168#6" type="moto_motorcycle"/>
    <trip id="moto123" depart="506.53" departLane="best" departSpeed="max" from="-142704128#1" to="40150503#1" type="moto_motorcycle"/>
    <trip id="moto125" depart="514.77" departLane="best" from="26773464#4" to="493493233" type="moto_motorcycle"/>
    <trip id="moto126" depart="518.89" departLane="best" from="141179036#1" to="311903943" type="moto_motorcycle"/>
    <trip id="moto128" depart="527.12" departLane="best" from="8505168#5" to="26811422" type="moto_motorcycle"/>
    <trip id="moto129" depart="531.24" departLane="best" from="217557692#2" to="16091890#2" type="moto_motorcycle"/>
    <trip id="moto131" depart="539.48" departLane="best" from="38781032" to="-460787688#0" type="moto_motorcycle"/>
    <trip id="moto132" depart="543.60" departLane="best" from="220387887#1" to="606439138" type="moto_motorcycle"/>
    <trip id="moto133" depart="547.71" departLane="best" from="-23165590#1" to="656676189" type="moto_motorcycle"/>
    <trip id="moto134" depart="551.83" departLane="best" from="220387889#0" to="-21594233#0" type="moto_motorcycle"/>
    <trip id="moto135" depart="555.95" departLane="best" from="463057022#4" to="190581793#1" type="moto_motorcycle"/>
    <trip id="moto136" depart="560.07" departLane="best" from="330344153" to="190601551" type="moto_motorcycle"/>
    <trip id="moto137" depart="564.19" departLane="best" departSpeed="max" from="-8298127#1" to="463670811#1" type="moto_motorcycle"/>
    <trip id="moto138" depart="568.30" departLane="best" from="8378824#2" to="-606696307" type="moto_motorcycle"/>
    <trip id="moto139" depart="572.42" departLane="best" from="23179704" to="9781305" type="moto_motorcycle"/>
    <trip id="moto140" depart="576.54" departLane="best" from="220387889#0" to="220387891#0" type="moto_motorcycle"/>
    <trip id="moto141" depart="580.66" departLane="best" from="407196119" to="-143586350#0" type="moto_motorcycle"/>
    <trip id="moto142" depart="584.78" departLane="best" from="264963988#0" to="460787688#5" type="moto_motorcycle"/>
    <trip id="moto143" depart="588.89" departLane="best" from="331478122#3" to="157109027#0" type="moto_motorcycle"/>
    <trip id="moto144" depart="593.01" departLane="best" from="188476880#2" to="654708414" type="moto_motorcycle"/>
    <trip id="moto145" depart="597.13" departLane="best" from="25502942#0" to="4891571" type="moto_motorcycle"/>
    <trip id="moto146" depart="601.25" departLane="best" from="-174302038" to="25501984" type="moto_motorcycle"/>
    <trip id="moto147" depart="605.37" departLane="best" from="60578510#2" to="9780341#1" type="moto_motorcycle"/>
    <trip id="moto148" depart="609.49" departLane="best" from="-143586308#0" to="451120809#2" type="moto_motorcycle"/>
    <trip id="moto150" depart="617.72" departLane="best" from="-25505536#0" to="216122812#0" type="moto_motorcycle"/>
    <trip id="moto151" depart="621.84" departLane="best" from="228186366#0" to="448979126" type="moto_motorcycle"/>
    <trip id="moto152" depart="625.96" departLane="best" from="-333890926" to="-190465779#0" type="moto_motorcycle"/>
    <trip id="moto153" depart="630.08" departLane="best" from="-516892195" to="5823604" type="moto_motorcycle"/>
    <trip id="moto154" depart="634.19" departLane="best" from="-25503166#6" to="188791146#0" type="moto_motorcycle"/>
    <trip id="moto155" depart="638.31" departLane="best" from="-141137043#2" to="458320759" type="moto_motorcycle"/>
    <trip id="moto156" depart="642.43" departLane="best" from="554706401#0" to="307541272#2" type="moto_motorcycle"/>
    <trip id="moto157" depart="646.55" departLane="best" from="-307541272#1" to="188015323#0" type="moto_motorcycle"/>
    <trip id="moto158" depart="650.67" departLane="best" departSpeed="max" from="25501626" to="174302039#0" type="moto_motorcycle"/>
    <trip id="moto159" depart="654.79" departLane="best" from="-431576781#1" to="144870968#7" type="moto_motorcycle"/>
    <trip id="moto160" depart="658.90" departLane="best" from="190465775#0" to="-576410787" type="moto_motorcycle"/>
    <trip id="moto161" depart="663.02" departLane="best" from="23129765#1" to="23179553#0" type="moto_motorcycle"/>
    <trip id="moto162" depart="667.14" departLane="best" from="93762556#1" to="139785377#3" type="moto_motorcycle"/>
    <trip id="moto163" depart="671.26" departLane="best" from="83075275#0" to="26949512#1" type="moto_motorcycle"/>
    <trip id="moto164" depart="675.38" departLane="best" from="10605378" to="45519024" type="moto_motorcycle"/>
    <trip id="moto165" depart="679.49" departLane="best" from="25478265" to="25400473#1" type="moto_motorcycle"/>
    <trip id="moto166" depart="683.61" departLane="best" from="30372486" to="333878195" type="moto_motorcycle"/>
    <trip id="moto167" depart="687.73" departLane="best" from="25197931#1" to="554713067" type="moto_motorcycle"/>
    <trip id="moto168" depart="691.85" departLane="best" from="333890926" to="-204552608#1" type="moto_motorcycle"/>
    <trip id="moto171" depart="704.20" departLane="best" from="645338242#1" to="-25503166#5" type="moto_motorcycle"/>
    <trip id="moto172" depart="708.32" departLane="best" from="331478122#6" to="83075275#2" type="moto_motorcycle"/>
    <trip id="moto173" depart="712.44" departLane="best" from="-141137046#3" to="217558037" type="moto_motorcycle"/>
    <trip id="moto174" depart="716.56" departLane="best" from="26949916" to="23201600#0" type="moto_motorcycle"/>
    <trip id="moto175" depart="720.68" departLane="best" from="22761543#0" to="584853313#1" type="moto_motorcycle"/>
    <trip id="moto176" depart="724.79" departLane="best" from="129273989" to="153147536" type="moto_motorcycle"/>
    <trip id="moto177" depart="728.91" departLane="best" from="131675656#2" to="190465817#2" type="moto_motorcycle"/>
    <trip id="moto178" depart="733.03" departLane="best" from="-204552620" to="516892199" type="moto_motorcycle"/>
    <trip id="moto179" depart="737.15" departLane="best" from="26811422" to="370610341" type="moto_motorcycle"/>
    <trip id="moto180" depart="741.27" departLane="best" from="152813977#1" to="-217554187#1" type="moto_motorcycle"/>
    <trip id="moto181" depart="745.38" departLane="best" from="190465788#0" to="153147529#1" type="moto_motorcycle"/>
    <trip id="moto182" depart="749.50" departLane="best" from="645284559#1" to="-141261874#0" type="moto_motorcycle"/>
    <trip id="moto183" depart="753.62" departLane="best" from="143586213#1" to="188015323#2" type="moto_motorcycle"/>
    <trip id="moto184" depart="757.74" departLane="best" from="217557693#0" to="8298127#1" type="moto_motorcycle"/>
    <trip id="moto186" depart="765.98" departLane="best" from="-40150576#1" to="-23201239#5" type="moto_motorcycle"/>
    <trip id="moto187" depart="770.09" departLane="best" from="23201600#2" to="-141179035#3" type="moto_motorcycle"/>
    <trip id="moto188" depart="774.21" departLane="best" from="5113251#0" to="141265297#1" type="moto_motorcycle"/>
    <trip id="moto189" depart="778.33" departLane="best" from="-25505536#3" to="543059990#0" type="moto_motorcycle"/>
    <trip id="moto191" depart="786.57" departLane="best" from="25505536#4" to="-141179035#9" type="moto_motorcycle"/>
    <trip id="moto192" depart="790.68" departLane="best" from="-516884626" to="141179037#3" type="moto_motorcycle"/>
    <trip id="moto193" depart="794.80" departLane="best" from="636875414#3" to="-143586308#3" type="moto_motorcycle"/>
    <trip id="moto194" depart="798.92" departLane="best" from="19644867#1" to="188476880#1" type="moto_motorcycle"/>
    <trip id="moto195" depart="803.04" departLane="best" from="-188690103" to="24438744#2" type="moto_motorcycle"/>
    <trip id="moto196" depart="807.16" departLane="best" departSpeed="max" from="-16091890#3" to="10577351" type="moto_motorcycle"/>
    <trip id="moto197" depart="811.27" departLane="best" from="21521128" to="188228392" type="moto_motorcycle"/>
    <trip id="moto198" depart="815.39" departLane="best" from="233287122#1" to="-217554187#1" type="moto_motorcycle"/>
    <trip id="moto199" depart="819.51" departLane="best" from="331478122#1" to="-488642460" type="moto_motorcycle"/>
    <trip id="moto200" depart="823.63" departLane="best" from="141265297#1" to="188228392" type="moto_motorcycle"/>
    <trip id="moto201" depart="827.75" departLane="best" from="152813991#0" to="-21594233#2" type="moto_motorcycle"/>
    <trip id="moto202" depart="831.87" departLane="best" from="143586280#2" to="-3042236#6" type="moto_motorcycle"/>
    <trip id="moto203" depart="835.98" departLane="best" from="463057022#4" to="-21594233#0" type="moto_motorcycle"/>
    <trip id="moto204" depart="840.10" departLane="best" from="458542854#1" to="228186366#0" type="moto_motorcycle"/>
    <trip id="moto205" depart="844.22" departLane="best" from="23179704" to="23129765#0" type="moto_motorcycle"/>
    <trip id="moto206" depart="848.34" departLane="best" from="141179036#1" to="-23201239#5" type="moto_motorcycle"/>
    <trip id="moto207" depart="852.46" departLane="best" from="142944283" to="30412260" type="moto_motorcycle"/>
    <trip id="moto208" depart="856.57" departLane="best" from="25503166#6" to="-516884625" type="moto_motorcycle"/>
    <trip id="moto209" depart="860.69" departLane="best" from="23138318#1" to="458320761#0" type="moto_motorcycle"/>
    <trip id="moto210" depart="864.81" departLane="best" from="606439152" to="463057022#2" type="moto_motorcycle"/>
    <trip id="moto211" depart="868.93" departLane="best" departSpeed="max" from="-656299984#1" to="-396739433" type="moto_motorcycle"/>
    <trip id="moto212" depart="873.05" departLane="best" from="31027842#0" to="141179035#13" type="moto_motorcycle"/>
    <trip id="moto213" depart="877.17" departLane="best" from="141265297#2" to="-139785377#2" type="moto_motorcycle"/>
    <trip id="moto214" depart="881.28" departLane="best" from="146482573#0" to="-25505523#0" type="moto_motorcycle"/>
    <trip id="moto215" depart="885.40" departLane="best" from="25407493#1" to="-141179037#2" type="moto_motorcycle"/>
    <trip id="moto216" depart="889.52" departLane="best" from="36268330#0" to="-488642460" type="moto_motorcycle"/>
    <trip id="moto217" depart="893.64" departLane="best" from="143586213#1" to="333890922" type="moto_motorcycle"/>
    <trip id="moto218" depart="897.76" departLane="best" from="-190465775#0" to="-146481665#0" type="moto_motorcycle"/>
    <trip id="moto219" depart="901.87" departLane="best" from="-3042239#0" to="24996349#4" type="moto_motorcycle"/>
    <trip id="moto220" depart="905.99" departLane="best" from="181361656#0" to="10304101" type="moto_motorcycle"/>
    <trip id="moto221" depart="910.11" departLane="best" from="26623996#1" to="-143586350#1" type="moto_motorcycle"/>
    <trip id="moto222" depart="914.23" departLane="best" from="144870968#9" to="235536382" type="moto_motorcycle"/>
    <trip id="moto224" depart="922.46" departLane="best" from="23159360#3" to="23165593#3" type="moto_motorcycle"/>
    <trip id="moto225" depart="926.58" departLane="best" from="315771480#0" to="16168075#0" type="moto_motorcycle"/>
    <trip id="moto226" depart="930.70" departLane="best" from="24438744#1" to="463057026" type="moto_motorcycle"/>
    <trip id="moto227" depart="934.82" departLane="best" from="144871320#0" to="141179035#15" type="moto_motorcycle"/>
    <trip id="moto228" depart="938.94" departLane="best" from="-333396048#0" to="192029053" type="moto_motorcycle"/>
    <trip id="moto229" depart="943.06" departLane="best" from="554713072" to="142944421#1" type="moto_motorcycle"/>
    <trip id="moto230" depart="947.17" departLane="best" from="460573534#0" to="-576410785" type="moto_motorcycle"/>
    <trip id="moto231" depart="951.29" departLane="best" from="-25505536#2" to="-446704734#0" type="moto_motorcycle"/>
    <trip id="moto232" depart="955.41" departLane="best" from="23201600#9" to="40150576#1" type="moto_motorcycle"/>
    <trip id="moto233" depart="959.53" departLane="best" from="40288819" to="190465817#4" type="moto_motorcycle"/>
    <trip id="moto235" depart="967.76" departLane="best" from="18761926#0" to="60578547#1" type="moto_motorcycle"/>
    <trip id="moto237" depart="976.00" departLane="best" from="24996349#4" to="-3042236#3" type="moto_motorcycle"/>
    <trip id="moto238" depart="980.12" departLane="best" from="131675656#0" to="10577351" type="moto_motorcycle"/>
    <trip id="moto239" depart="984.24" departLane="best" from="220387891#1" to="446704735#2" type="moto_motorcycle"/>
    <trip id="moto240" depart="988.36" departLane="best" from="53721850" to="188228387#0" type="moto_motorcycle"/>
    <trip id="moto241" depart="992.47" departLane="best" from="458542845#0" to="26623947#1" type="moto_motorcycle"/>
    <trip id="moto242" depart="996.59" departLane="best" from="141179035#13" to="190465775#1" type="moto_motorcycle"/>
    <trip id="moto243" depart="1000.71" departLane="best" from="-21594233#5" to="541386221#0" type="moto_motorcycle"/>
    <trip id="moto244" depart="1004.83" departLane="best" departSpeed="max" from="142944240#0" to="331478129#0" type="moto_motorcycle"/>
    <trip id="moto245" depart="1008.95" departLane="best" from="-543059990#0" to="185992233" type="moto_motorcycle"/>
    <trip id="moto246" depart="1013.06" departLane="best" from="-307541272#2" to="143586334#0" type="moto_motorcycle"/>
    <trip id="moto247" depart="1017.18" departLane="best" from="141263264#1" to="23407099" type="moto_motorcycle"/>
    <trip id="moto248" depart="1021.30" departLane="best" from="431576781#0" to="25505536#4" type="moto_motorcycle"/>
    <trip id="moto249" depart="1025.42" departLane="best" from="30412260" to="121708051#3" type="moto_motorcycle"/>
    <trip id="moto250" depart="1029.54" departLane="best" from="141179037#2" to="23201239#4" type="moto_motorcycle"/>
    <trip id="moto251" depart="1033.65" departLane="best" from="463057022#0" to="355309979" type="moto_motorcycle"/>
    <trip id="moto252" depart="1037.77" departLane="best" from="3042239#1" to="21594233#2" type="moto_motorcycle"/>
    <trip id="moto253" depart="1041.89" departLane="best" from="25502921#1" to="174302038" type="moto_motorcycle"/>
    <trip id="moto255" depart="1050.13" departLane="best" from="-21594233#2" to="412020085" type="moto_motorcycle"/>
    <trip id="moto256" depart="1054.25" departLane="best" from="463057022#3" to="412020090" type="moto_motorcycle"/>
    <trip id="moto257" depart="1058.36" departLane="best" from="292815354" to="-576410787" type="moto_motorcycle"/>
    <trip id="moto258" depart="1062.48" departLane="best" from="184627082#0" to="121708058#1" type="moto_motorcycle"/>
    <trip id="moto259" depart="1066.60" departLane="best" from="463057277" to="143586308#2" type="moto_motorcycle"/>
    <trip id="moto261" depart="1074.84" departLane="best" from="143586334#1" to="21594233#3" type="moto_motorcycle"/>
    <trip id="moto263" depart="1083.07" departLane="best" from="488642458" to="121708058#1" type="moto_motorcycle"/>
    <trip id="moto264" depart="1087.19" departLane="best" from="554713072" to="-26623996#1" type="moto_motorcycle"/>
    <trip id="moto265" depart="1091.31" departLane="best" departSpeed="max" from="-469536044" to="188228389" type="moto_motorcycle"/>
    <trip id="moto266" depart="1095.43" departLane="best" from="606439164" to="469536044" type="moto_motorcycle"/>
    <trip id="moto267" depart="1099.55" departLane="best" from="463057022#1" to="314405033#1" type="moto_motorcycle"/>
    <trip id="moto268" depart="1103.66" departLane="best" from="-22701043#2" to="123342665#3" type="moto_motorcycle"/>
    <trip id="moto269" depart="1107.78" departLane="best" from="123342665#3" to="-143586355#3" type="moto_motorcycle"/>
    <trip id="moto270" depart="1111.90" departLane="best" from="554713070" to="233756781" type="moto_motorcycle"/>
    <trip id="moto271" depart="1116.02" departLane="best" departSpeed="max" from="-526877522" to="-25505536#0" type="moto_motorcycle"/>
    <trip id="moto272" depart="1120.14" departLane="best" from="-516892195" to="161303910" type="moto_motorcycle"/>