<?xml version="1.0" encoding="UTF-8"?>
<!-- generated on 2019-02-06 15:52:07.368264 by $Id$ via randomTrips.py
  options: 
-->
<routes xmlns:xsi="http://www.w3.org/2001/XMLSchema-instance" xsi:noNamespaceSchemaLocation="http://sumo.dlr.de/xsd/routes_file.xsd">
    <vType id="veh_passenger" vClass="passenger">
    </vType>
    <trip id="veh0" depart="0.00" departLane="best" from="25502921#3" to="-141263264#1" type="veh_passenger"/>
    <trip id="veh1" depart="1.37" departLane="best" from="123342665#4" to="-646033698#1" type="veh_passenger"/>
    <trip id="veh2" depart="2.75" departLane="best" from="370610341" to="314405033#1" type="veh_passenger"/>
    <trip id="veh3" depart="4.12" departLane="best" from="53721854" to="-217554187#1" type="veh_passenger"/>
    <trip id="veh4" depart="5.49" departLane="best" from="188228387#0" to="-143586308#1" type="veh_passenger"/>
    <trip id="veh5" depart="6.86" departLane="best" from="-5113254" to="19644867#2" type="veh_passenger"/>
    <trip id="veh6" depart="8.24" departLane="best" departSpeed="max" from="-141179037#3" to="-5113251#0" type="veh_passenger"/>
    <trip id="veh7" depart="9.61" departLane="best" from="25505536#4" to="22911254#0" type="veh_passenger"/>
    <trip id="veh8" depart="10.98" departLane="best" from="-516884642" to="244270739#2" type="veh_passenger"/>
    <trip id="veh9" depart="12.35" departLane="best" from="460573534#1" to="-141137045#2" type="veh_passenger"/>
    <trip id="veh10" depart="13.73" departLane="best" departSpeed="max" from="458542855#0" to="333396048#1" type="veh_passenger"/>
    <trip id="veh12" depart="16.47" departLane="best" from="645338232#1" to="143586308#4" type="veh_passenger"/>
    <trip id="veh14" depart="19.22" departLane="best" from="4928828#1" to="25407493#0" type="veh_passenger"/>
    <trip id="veh16" depart="21.96" departLane="best" from="217557692#3" to="654708419" type="veh_passenger"/>
    <trip id="veh17" depart="23.34" departLane="best" from="153147529#1" to="23159360#3" type="veh_passenger"/>
    <trip id="veh20" depart="27.45" departLane="best" from="327109846#1" to="-152176399#0" type="veh_passenger"/>
    <trip id="veh21" depart="28.83" departLane="best" from="-543059990#0" to="141263264#1" type="veh_passenger"/>
    <trip id="veh22" depart="30.20" departLane="best" from="-190465779#1" to="-659691578" type="veh_passenger"/>
    <trip id="veh23" depart="31.57" departLane="best" from="-22701043#2" to="141179035#2" type="veh_passenger"/>
    <trip id="veh24" depart="32.95" departLane="best" from="25502117" to="153147529#1" type="veh_passenger"/>
    <trip id="veh25" depart="34.32" departLane="best" from="152176400#2" to="-604487632#0" type="veh_passenger"/>
    <trip id="veh26" depart="35.69" departLane="best" from="118756784" to="627882349" type="veh_passenger"/>
    <trip id="veh27" depart="37.06" departLane="best" from="25505536#0" to="25469048#1" type="veh_passenger"/>
    <trip id="veh29" depart="39.81" departLane="best" from="-40150503#2" to="174302038" type="veh_passenger"/>
    <trip id="veh32" depart="43.93" departLane="best" from="-554713073" to="-143586308#3" type="veh_passenger"/>
    <trip id="veh33" depart="45.30" departLane="best" from="142944283" to="141137045#1" type="veh_passenger"/>
    <trip id="veh35" depart="48.05" departLane="best" from="516884641#0" to="142944552" type="veh_passenger"/>
    <trip id="veh36" depart="49.42" departLane="best" from="26773464#1" to="18761926#1" type="veh_passenger"/>
    <trip id="veh37" depart="50.79" departLane="best" departSpeed="max" from="584225676" to="190465788#0" type="veh_passenger"/>
    <trip id="veh38" depart="52.16" departLane="best" from="111747607#2" to="10577351" type="veh_passenger"/>
    <trip id="veh39" depart="53.54" departLane="best" from="22911254#1" to="131675656#2" type="veh_passenger"/>
    <trip id="veh40" depart="54.91" departLane="best" from="23201239#2" to="53721857" type="veh_passenger"/>
    <trip id="veh41" depart="56.28" departLane="best" from="179060068" to="-607492167" type="veh_passenger"/>
    <trip id="veh42" depart="57.65" departLane="best" from="9783228" to="210979056" type="veh_passenger"/>
    <trip id="veh43" depart="59.03" departLane="best" from="-215080599" to="-152176399#0" type="veh_passenger"/>
    <trip id="veh44" depart="60.40" departLane="best" from="-23138735#0" to="258130590#2" type="veh_passenger"/>
    <trip id="veh45" depart="61.77" departLane="best" departSpeed="max" from="458117703" to="188473744" type="veh_passenger"/>
    <trip id="veh46" depart="63.14" departLane="best" from="-178065184" to="174302041#1" type="veh_passenger"/>
    <trip id="veh47" depart="64.52" departLane="best" from="9780341#1" to="220387889#0" type="veh_passenger"/>
    <trip id="veh48" depart="65.89" departLane="best" departSpeed="max" from="653756291#0" to="513471445" type="veh_passenger"/>
    <trip id="veh49" depart="67.26" departLane="best" from="-141137047#0" to="351700501" type="veh_passenger"/>
    <trip id="veh50" depart="68.64" departLane="best" from="111747607#4" to="30239026" type="veh_passenger"/>
    <trip id="veh51" depart="70.01" departLane="best" from="-23165590#1" to="189307628#0" type="veh_passenger"/>
    <trip id="veh52" depart="71.38" departLane="best" from="190465756" to="645338225" type="veh_passenger"/>
    <trip id="veh53" depart="72.75" departLane="best" from="516884640" to="132032333" type="veh_passenger"/>
    <trip id="veh54" depart="74.13" departLane="best" from="190586255" to="-446704734#2" type="veh_passenger"/>
    <trip id="veh55" depart="75.50" departLane="best" departSpeed="max" from="584225676" to="516884633#2" type="veh_passenger"/>
    <trip id="veh56" depart="76.87" departLane="best" departSpeed="max" from="141261874#0" to="27471775#0" type="veh_passenger"/>
    <trip id="veh57" depart="78.24" departLane="best" from="244270739#3" to="-372449106" type="veh_passenger"/>
    <trip id="veh59" depart="80.99" departLane="best" from="446704735#0" to="220387891#0" type="veh_passenger"/>
    <trip id="veh60" depart="82.36" departLane="best" from="-121708058#1" to="143586217" type="veh_passenger"/>
    <trip id="veh61" depart="83.74" departLane="best" from="-141179035#3" to="606439158" type="veh_passenger"/>
    <trip id="veh62" depart="85.11" departLane="best" departSpeed="max" from="516884651" to="463670811#2" type="veh_passenger"/>
    <trip id="veh63" depart="86.48" departLane="best" from="142944244#2" to="-18570957#1" type="veh_passenger"/>
    <trip id="veh64" depart="87.85" departLane="best" departSpeed="max" from="516884651" to="637815817#4" type="veh_passenger"/>
    <trip id="veh65" depart="89.23" departLane="best" from="-190465817#5" to="190581798#1" type="veh_passenger"/>
    <trip id="veh66" depart="90.60" departLane="best" from="-188476880#2" to="42772472" type="veh_passenger"/>
    <trip id="veh67" depart="91.97" departLane="best" from="4272708" to="-25505536#0" type="veh_passenger"/>
    <trip id="veh68" depart="93.34" departLane="best" from="190465797#0" to="23159360#1" type="veh_passenger"/>
    <trip id="veh69" depart="94.72" departLane="best" from="111747607#3" to="516884639#0" type="veh_passenger"/>
    <trip id="veh70" depart="96.09" departLane="best" from="188228387#0" to="-606439134" type="veh_passenger"/>
    <trip id="veh72" depart="98.84" departLane="best" departSpeed="max" from="-46102597" to="142944424" type="veh_passenger"/>
    <trip id="veh74" depart="101.58" departLane="best" from="188228394#5" to="216122812#0" type="veh_passenger"/>
    <trip id="veh75" depart="102.95" departLane="best" from="-24996349#2" to="-653756256" type="veh_passenger"/>
    <trip id="veh76" depart="104.33" departLane="best" from="143586280#3" to="244270739#1" type="veh_passenger"/>
    <trip id="veh77" depart="105.70" departLane="best" from="-576410785" to="-624397555" type="veh_passenger"/>
    <trip id="veh78" depart="107.07" departLane="best" departSpeed="max" from="-188476880#3" to="26624013#1" type="veh_passenger"/>
    <trip id="veh80" depart="109.82" departLane="best" departSpeed="max" from="-645284559#3" to="31027838#3" type="veh_passenger"/>
    <trip id="veh83" depart="113.94" departLane="best" from="190465793" to="45519022#1" type="veh_passenger"/>
    <trip id="veh84" depart="115.31" departLane="best" from="458542855#2" to="-463057022#1" type="veh_passenger"/>
    <trip id="veh85" depart="116.68" departLane="best" from="-217557693#2" to="189307622" type="veh_passenger"/>
    <trip id="veh86" depart="118.05" departLane="best" from="188228388" to="190465797#1" type="veh_passenger"/>
    <trip id="veh87" depart="119.43" departLane="best" from="348251623#0" to="31027842#1" type="veh_passenger"/>
    <trip id="veh88" depart="120.80" departLane="best" from="8435003#1" to="-228186366#0" type="veh_passenger"/>
    <trip id="veh89" depart="122.17" departLane="best" from="181361656#3" to="143586334#0" type="veh_passenger"/>
    <trip id="veh91" depart="124.92" departLane="best" from="-458542844#1" to="190465775#1" type="veh_passenger"/>
    <trip id="veh92" depart="126.29" departLane="best" from="188228387#0" to="141179035#3" type="veh_passenger"/>
    <trip id="veh93" depart="127.66" departLane="best" departSpeed="max" from="-8298127#1" to="60578532#1" type="veh_passenger"/>
    <trip id="veh94" depart="129.04" departLane="best" from="188791146#2" to="516884618#0" type="veh_passenger"/>
    <trip id="veh95" depart="130.41" departLane="best" from="22701043#2" to="-152813983" type="veh_passenger"/>
    <trip id="veh96" depart="131.78" departLane="best" departSpeed="max" from="9897177" to="471566756#0" type="veh_passenger"/>
    <trip id="veh97" depart="133.15" departLane="best" departSpeed="max" from="653756291#0" to="606439135#1" type="veh_passenger"/>
    <trip id="veh98" depart="134.53" departLane="best" departSpeed="max" from="495246282" to="-419279932#0" type="veh_passenger"/>
    <trip id="veh99" depart="135.90" departLane="best" from="190465817#4" to="-606439165" type="veh_passenger"/>
    <trip id="veh100" depart="137.27" departLane="best" from="181361656#2" to="-18761926#1" type="veh_passenger"/>
    <trip id="veh102" depart="140.02" departLane="best" from="111747607#3" to="45519022#1" type="veh_passenger"/>
    <trip id="veh103" depart="141.39" departLane="best" from="190465759" to="188473744" type="veh_passenger"/>
    <trip id="veh104" depart="142.76" departLane="best" from="645338232#1" to="93762556#1" type="veh_passenger"/>
    <trip id="veh106" depart="145.51" departLane="best" departSpeed="max" from="-348251630#1" to="142944244#4" type="veh_passenger"/>
    <trip id="veh107" depart="146.88" departLane="best" departSpeed="max" from="653756291#0" to="233287122#1" type="veh_passenger"/>
    <trip id="veh108" depart="148.25" departLane="best" from="220387887#5" to="40287739#1" type="veh_passenger"/>
    <trip id="veh109" depart="149.63" departLane="best" departSpeed="max" from="-16091890#3" to="239479777" type="veh_passenger"/>
    <trip id="veh110" depart="151.00" departLane="best" from="190601551" to="5009104#2" type="veh_passenger"/>
    <trip id="veh111" depart="152.37" departLane="best" departSpeed="max" from="-349349451" to="645338242#1" type="veh_passenger"/>
    <trip id="veh112" depart="153.74" departLane="best" from="-190465779#2" to="-460787688#1" type="veh_passenger"/>
    <trip id="veh113" depart="155.12" departLane="best" from="233287122#1" to="311903943" type="veh_passenger"/>
    <trip id="veh114" depart="156.49" departLane="best" from="-624397555" to="-25400603" type="veh_passenger"/>
    <trip id="veh115" depart="157.86" departLane="best" from="53436021" to="10577351" type="veh_passenger"/>
    <trip id="veh117" depart="160.61" departLane="best" from="188228382" to="239479767#0" type="veh_passenger"/>
    <trip id="veh118" depart="161.98" departLane="best" from="21594797#0" to="625856813#0" type="veh_passenger"/>
    <trip id="veh119" depart="163.35" departLane="best" from="-463057022#2" to="348251627#2" type="veh_passenger"/>
    <trip id="veh120" depart="164.73" departLane="best" departSpeed="max" from="-645284559#3" to="18761926#1" type="veh_passenger"/>
    <trip id="veh122" depart="167.47" departLane="best" from="142944290#0" to="412020085" type="veh_passenger"/>
    <trip id="veh123" depart="168.84" departLane="best" from="-188791146#0" to="190465787" type="veh_passenger"/>
    <trip id="veh124" depart="170.22" departLane="best" departSpeed="max" from="9897177" to="9702432#0" type="veh_passenger"/>
    <trip id="veh125" depart="171.59" departLane="best" from="-188791147" to="-606439165" type="veh_passenger"/>
    <trip id="veh126" depart="172.96" departLane="best" from="111747607#3" to="625856812" type="veh_passenger"/>
    <trip id="veh127" depart="174.33" departLane="best" from="152176399#2" to="-38563900" type="veh_passenger"/>
    <trip id="veh128" depart="175.71" departLane="best" departSpeed="max" from="47854310" to="333891065#0" type="veh_passenger"/>
    <trip id="veh129" depart="177.08" departLane="best" from="24438744#3" to="8496681#1" type="veh_passenger"/>
    <trip id="veh130" depart="178.45" departLane="best" from="26623996#0" to="-141137046#2" type="veh_passenger"/>
    <trip id="veh132" depart="181.20" departLane="best" from="292815354" to="631613576" type="veh_passenger"/>
    <trip id="veh133" depart="182.57" departLane="best" from="-3042236#1" to="-24996349#4" type="veh_passenger"/>
    <trip id="veh134" depart="183.94" departLane="best" from="-228186366#1" to="23159360#4" type="veh_passenger"/>
    <trip id="veh135" depart="185.32" departLane="best" from="122663598#1" to="25444286" type="veh_passenger"/>
    <trip id="veh136" depart="186.69" departLane="best" from="333890922" to="-53436020" type="veh_passenger"/>
    <trip id="veh137" depart="188.06" departLane="best" from="25501629#2" to="139785375" type="veh_passenger"/>
    <trip id="veh138" depart="189.43" departLane="best" from="190465819" to="554713069" type="veh_passenger"/>
    <trip id="veh139" depart="190.81" departLane="best" from="4928824" to="-22701043#1" type="veh_passenger"/>
    <trip id="veh140" depart="192.18" departLane="best" from="188228388" to="141179035#16" type="veh_passenger"/>
    <trip id="veh141" depart="193.55" departLane="best" departSpeed="max" from="-121711407" to="431576782" type="veh_passenger"/>
    <trip id="veh142" depart="194.93" departLane="best" departSpeed="max" from="25502921#0" to="131675656#0" type="veh_passenger"/>
    <trip id="veh144" depart="197.67" departLane="best" from="188228391" to="-141137047#3" type="veh_passenger"/>
    <trip id="veh146" depart="200.42" departLane="best" from="554713073" to="22911254#1" type="veh_passenger"/>
    <trip id="veh147" depart="201.79" departLane="best" departSpeed="max" from="47854310" to="239479767#0" type="veh_passenger"/>
    <trip id="veh148" depart="203.16" departLane="best" departSpeed="max" from="-33041313#1" to="-25505523#0" type="veh_passenger"/>
    <trip id="veh149" depart="204.53" departLane="best" from="142944244#3" to="541386221#1" type="veh_passenger"/>
    <trip id="veh150" depart="205.91" departLane="best" from="458320761#0" to="513471445" type="veh_passenger"/>
    <trip id="veh151" depart="207.28" departLane="best" from="554706401#1" to="-604487632#1" type="veh_passenger"/>
    <trip id="veh152" depart="208.65" departLane="best" from="446704735#2" to="516892195" type="veh_passenger"/>
    <trip id="veh153" depart="210.03" departLane="best" from="185992233" to="25502942#2" type="veh_passenger"/>
    <trip id="veh154" depart="211.40" departLane="best" departSpeed="max" from="-348251630#1" to="606439164" type="veh_passenger"/>
    <trip id="veh155" depart="212.77" departLane="best" from="516884618#0" to="656676190" type="veh_passenger"/>
    <trip id="veh158" depart="216.89" departLane="best" departSpeed="max" from="458542855#0" to="516884619" type="veh_passenger"/>
    <trip id="veh159" depart="218.26" departLane="best" from="460573535#0" to="141137043#3" type="veh_passenger"/>
    <trip id="veh160" depart="219.63" departLane="best" from="45519022#1" to="-23201239#1" type="veh_passenger"/>
    <trip id="veh161" depart="221.01" departLane="best" from="516884633#0" to="5113251#1" type="veh_passenger"/>
    <trip id="veh162" depart="222.38" departLane="best" departSpeed="max" from="-526877522" to="460787688#4" type="veh_passenger"/>
    <trip id="veh163" depart="223.75" departLane="best" from="190465775#0" to="142944290#1" type="veh_passenger"/>
    <trip id="veh164" depart="225.13" departLane="best" from="458320759" to="-653756291#0" type="veh_passenger"/>
    <trip id="veh165" depart="226.50" departLane="best" from="-141179036#2" to="-47365571" type="veh_passenger"/>
    <trip id="veh166" depart="227.87" departLane="best" from="143586186#0" to="516884619" type="veh_passenger"/>
    <trip id="veh167" depart="229.24" departLane="best" from="653756256" to="141179035#4" type="veh_passenger"/>
    <trip id="veh168" depart="230.62" departLane="best" from="25502942#1" to="188015323#1" type="veh_passenger"/>
    <trip id="veh169" depart="231.99" departLane="best" from="83075275#2" to="22761468#4" type="veh_passenger"/>
    <trip id="veh170" depart="233.36" departLane="best" from="625856813#0" to="-24996349#4" type="veh_passenger"/>
    <trip id="veh171" depart="234.73" departLane="best" departSpeed="max" from="653756291#0" to="-446704734#2" type="veh_passenger"/>
    <trip id="veh172" depart="236.11" departLane="best" from="645338242#1" to="139785377#3" type="veh_passenger"/>
    <trip id="veh173" depart="237.48" departLane="best" from="-228186366#2" to="189307628#0" type="veh_passenger"/>
    <trip id="veh174" depart="238.85" departLane="best" from="348251623#0" to="142944546#2" type="veh_passenger"/>
    <trip id="veh175" depart="240.23" departLane="best" from="244270739#0" to="21591353#0" type="veh_passenger"/>
    <trip id="veh176" depart="241.60" departLane="best" from="161303905#0" to="23201699" type="veh_passenger"/>
    <trip id="veh177" depart="242.97" departLane="best" departSpeed="max" from="-121711407" to="606439135#0" type="veh_passenger"/>
    <trip id="veh178" depart="244.34" departLane="best" from="217558040" to="349349451" type="veh_passenger"/>
    <trip id="veh180" depart="247.09" departLane="best" from="30239026" to="143586308#1" type="veh_passenger"/>
    <trip id="veh181" depart="248.46" departLane="best" from="142944258" to="4928828#1" type="veh_passenger"/>
    <trip id="veh183" depart="251.21" departLane="best" from="142944244#5" to="188228382" type="veh_passenger"/>
    <trip id="veh185" depart="253.95" departLane="best" from="627882349" to="315187229" type="veh_passenger"/>
    <trip id="veh186" depart="255.33" departLane="best" from="554713072" to="25502121" type="veh_passenger"/>
    <trip id="veh187" depart="256.70" departLane="best" from="141263264#0" to="23129765#2" type="veh_passenger"/>
    <trip id="veh188" depart="258.07" departLane="best" from="-10304101" to="141179037#3" type="veh_passenger"/>
    <trip id="veh189" depart="259.44" departLane="best" departSpeed="max" from="188228394#0" to="23407099" type="veh_passenger"/>
    <trip id="veh190" depart="260.82" departLane="best" from="26624013#1" to="190465795" type="veh_passenger"/>
    <trip id="veh191" depart="262.19" departLane="best" from="188791146#0" to="-606439165" type="veh_passenger"/>
    <trip id="veh192" depart="263.56" departLane="best" from="190465793" to="554706401#0" type="veh_passenger"/>
    <trip id="veh193" depart="264.93" departLane="best" from="458320761#0" to="-425050767#0" type="veh_passenger"/>
    <trip id="veh194" depart="266.31" departLane="best" from="-190465817#4" to="21594797#0" type="veh_passenger"/>
    <trip id="veh195" depart="267.68" departLane="best" departSpeed="max" from="25501626" to="143586308#4" type="veh_passenger"/>
    <trip id="veh196" depart="269.05" departLane="best" from="463057019#1" to="407196119" type="veh_passenger"/>
    <trip id="veh197" depart="270.42" departLane="best" from="3042320" to="-653756256" type="veh_passenger"/>
    <trip id="veh198" depart="271.80" departLane="best" departSpeed="max" from="-46102582" to="-141263264#0" type="veh_passenger"/>
    <trip id="veh199" depart="273.17" departLane="best" departSpeed="max" from="-656299984#1" to="190465817#4" type="veh_passenger"/>
    <trip id="veh200" depart="274.54" departLane="best" departSpeed="max" from="495246282" to="-190465817#6" type="veh_passenger"/>
    <trip id="veh201" depart="275.92" departLane="best" from="188015327#0" to="26623947#2" type="veh_passenger"/>
    <trip id="veh202" depart="277.29" departLane="best" from="-460787688#5" to="331478129#3" type="veh_passenger"/>
    <trip id="veh203" depart="278.66" departLane="best" from="190581792" to="-9897177" type="veh_passenger"/>
    <trip id="veh204" depart="280.03" departLane="best" from="26773464#2" to="-141137043#2" type="veh_passenger"/>
    <trip id="veh205" depart="281.41" departLane="best" departSpeed="max" from="40154352#0" to="431576781#0" type="veh_passenger"/>
    <trip id="veh206" depart="282.78" departLane="best" from="-228186366#0" to="188476880#1" type="veh_passenger"/>
    <trip id="veh207" depart="284.15" departLane="best" from="-431576781#1" to="645338236#0" type="veh_passenger"/>
    <trip id="veh208" depart="285.52" departLane="best" from="215080599" to="-152813983" type="veh_passenger"/>
    <trip id="veh209" depart="286.90" departLane="best" departSpeed="max" from="-8298127#1" to="493493233" type="veh_passenger"/>
    <trip id="veh210" depart="288.27" departLane="best" from="190465763" to="458320760#0" type="veh_passenger"/>
    <trip id="veh211" depart="289.64" departLane="best" from="30412261" to="8496681#1" type="veh_passenger"/>
    <trip id="veh212" depart="291.02" departLane="best" from="233287122#1" to="645284559#2" type="veh_passenger"/>
    <trip id="veh213" depart="292.39" departLane="best" from="53436293" to="25501629#2" type="veh_passenger"/>
    <trip id="veh214" depart="293.76" departLane="best" from="333891064" to="19644867#1" type="veh_passenger"/>
    <trip id="veh215" depart="295.13" departLane="best" from="469768614" to="23129765#2" type="veh_passenger"/>
    <trip id="veh216" depart="296.51" departLane="best" from="554706401#0" to="40154352#3" type="veh_passenger"/>
    <trip id="veh217" depart="297.88" departLane="best" from="190465795" to="123342665#3" type="veh_passenger"/>
    <trip id="veh218" depart="299.25" departLane="best" from="-82410227#0" to="26961514" type="veh_passenger"/>
    <trip id="veh219" depart="300.62" departLane="best" from="4272708" to="217557693#2" type="veh_passenger"/>
    <trip id="veh220" depart="302.00" departLane="best" from="25469034" to="141179035#13" type="veh_passenger"/>
    <trip id="veh221" depart="303.37" departLane="best" departSpeed="max" from="-190465775#1" to="141179037#3" type="veh_passenger"/>
    <trip id="veh222" depart="304.74" departLane="best" from="122663598#1" to="143586206" type="veh_passenger"/>
    <trip id="veh223" depart="306.12" departLane="best" from="-604487632#0" to="331478129#0" type="veh_passenger"/>
    <trip id="veh224" depart="307.49" departLane="best" from="330344153" to="-190465779#1" type="veh_passenger"/>
    <trip id="veh225" depart="308.86" departLane="best" from="188015317" to="228186366#0" type="veh_passenger"/>
    <trip id="veh226" depart="310.23" departLane="best" from="188228383" to="554713068#0" type="veh_passenger"/>
    <trip id="veh227" depart="311.61" departLane="best" from="23201239#2" to="331478129#3" type="veh_passenger"/>
    <trip id="veh228" depart="312.98" departLane="best" from="5009104#1" to="43145612#1" type="veh_passenger"/>
    <trip id="veh229" depart="314.35" departLane="best" from="157109027#0" to="-141137043#3" type="veh_passenger"/>
    <trip id="veh230" depart="315.72" departLane="best" from="144870968#0" to="419279932#1" type="veh_passenger"/>
    <trip id="veh232" depart="318.47" departLane="best" from="188228382" to="40287739#1" type="veh_passenger"/>
    <trip id="veh233" depart="319.84" departLane="best" from="220387891#0" to="25407366" type="veh_passenger"/>
    <trip id="veh234" depart="321.22" departLane="best" from="-516884642" to="-607492167" type="veh_passenger"/>
    <trip id="veh235" depart="322.59" departLane="best" departSpeed="max" from="188228394#0" to="-143586308#0" type="veh_passenger"/>
    <trip id="veh237" depart="325.33" departLane="best" from="18570739#0" to="-40154352#2" type="veh_passenger"/>
    <trip id="veh238" depart="326.71" departLane="best" from="190465787" to="-25505523#1" type="veh_passenger"/>
    <trip id="veh239" depart="328.08" departLane="best" from="25407366" to="-143586280#1" type="veh_passenger"/>
    <trip id="veh240" depart="329.45" departLane="best" from="174302041#3" to="23179673#2" type="veh_passenger"/>
    <trip id="veh241" depart="330.82" departLane="best" departSpeed="max" from="-141179037#3" to="30412260" type="veh_passenger"/>
    <trip id="veh242" depart="332.20" departLane="best" from="-3042236#5" to="190465791#0" type="veh_passenger"/>
    <trip id="veh243" depart="333.57" departLane="best" from="-146481665#0" to="174302037" type="veh_passenger"/>
    <trip id="veh245" depart="336.32" departLane="best" departSpeed="max" from="419279932#0" to="174302037" type="veh_passenger"/>
    <trip id="veh246" depart="337.69" departLane="best" departSpeed="max" from="40154352#0" to="463929523#0" type="veh_passenger"/>
    <trip id="veh249" depart="341.81" departLane="best" departSpeed="max" from="9897177" to="146481861" type="veh_passenger"/>
    <trip id="veh250" depart="343.18" departLane="best" from="25505536#4" to="451120809#2" type="veh_passenger"/>
    <trip id="veh251" depart="344.55" departLane="best" from="264963984" to="42048394" type="veh_passenger"/>
    <trip id="veh252" depart="345.92" departLane="best" from="637815817#3" to="-5113254" type="veh_passenger"/>
    <trip id="veh253" depart="347.30" departLane="best" from="-141179035#5" to="-372449106" type="veh_passenger"/>
    <trip id="veh254" depart="348.67" departLane="best" from="-25503166#1" to="31027838#4" type="veh_passenger"/>
    <trip id="veh255" depart="350.04" departLane="best" from="23129765#3" to="-607492167" type="veh_passenger"/>
    <trip id="veh256" depart="351.42" departLane="best" from="315771480#1" to="43145613#1" type="veh_passenger"/>
    <trip id="veh257" depart="352.79" departLane="best" from="-40154352#1" to="25469034" type="veh_passenger"/>
    <trip id="veh258" depart="354.16" departLane="best" from="400216393#0" to="-24996349#2" type="veh_passenger"/>
    <trip id="veh259" depart="355.53" departLane="best" from="463057020" to="653756253" type="veh_passenger"/>
    <trip id="veh260" depart="356.91" departLane="best" from="-228186366#2" to="-142704128#0" type="veh_passenger"/>
    <trip id="veh261" depart="358.28" departLane="best" from="142944253#1" to="315187229" type="veh_passenger"/>
    <trip id="veh262" depart="359.65" departLane="best" from="645338233" to="188015318#0" type="veh_passenger"/>
    <trip id="veh263" depart="361.02" departLane="best" from="31027838#4" to="258130590#0" type="veh_passenger"/>
    <trip id="veh264" depart="362.40" departLane="best" from="-22761468#3" to="444316122#0" type="veh_passenger"/>
    <trip id="veh265" depart="363.77" departLane="best" departSpeed="max" from="495246282" to="24996349#3" type="veh_passenger"/>
    <trip id="veh266" depart="365.14" departLane="best" from="-24996349#2" to="83075275#2" type="veh_passenger"/>
    <trip id="veh267" depart="366.52" departLane="best" from="448984427" to="144870968#8" type="veh_passenger"/>
    <trip id="veh268" depart="367.89" departLane="best" from="188228392" to="16091890#2" type="veh_passenger"/>
    <trip id="veh269" depart="369.26" departLane="best" from="193267397" to="143586350#1" type="veh_passenger"/>
    <trip id="veh270" depart="370.63" departLane="best" departSpeed="max" from="495246282" to="463057019#1" type="veh_passenger"/>
    <trip id="veh272" depart="373.38" departLane="best" from="25501984" to="463057029" type="veh_passenger"/>
    <trip id="veh274" depart="376.12" departLane="best" from="36268330#1" to="653756256" type="veh_passenger"/>
    <trip id="veh275" depart="377.50" departLane="best" from="121708058#1" to="458542854#1" type="veh_passenger"/>
    <trip id="veh276" depart="378.87" departLane="best" from="217558040" to="190581798#1" type="veh_passenger"/>
    <trip id="veh277" depart="380.24" departLane="best" departSpeed="max" from="188228394#0" to="381540198#0" type="veh_passenger"/>
    <trip id="veh278" depart="381.61" departLane="best" from="121708051#0" to="5009104#1" type="veh_passenger"/>
    <trip id="veh279" depart="382.99" departLane="best" from="471566756#0" to="-217554187#1" type="veh_passenger"/>
    <trip id="veh280" depart="384.36" departLane="best" from="516892195" to="-9897177" type="veh_passenger"/>
    <trip id="veh281" depart="385.73" departLane="best" from="153147529#1" to="-143586280#4" type="veh_passenger"/>
    <trip id="veh282" depart="387.11" departLane="best" departSpeed="max" from="495246282" to="-458542844#0" type="veh_passenger"/>
    <trip id="veh285" depart="391.22" departLane="best" from="316370438" to="141179035#16" type="veh_passenger"/>
    <trip id="veh286" depart="392.60" departLane="best" from="-141137046#2" to="637815817#6" type="veh_passenger"/>
    <trip id="veh287" depart="393.97" departLane="best" from="-190465817#5" to="349349451" type="veh_passenger"/>
    <trip id="veh288" depart="395.34" departLane="best" from="190465819" to="42772469#1" type="veh_passenger"/>
    <trip id="veh289" depart="396.71" departLane="best" from="31027838#4" to="3042236#5" type="veh_passenger"/>
    <trip id="veh290" depart="398.09" departLane="best" departSpeed="max" from="190467924" to="45729834#0" type="veh_passenger"/>
    <trip id="veh291" depart="399.46" departLane="best" from="-21594233#1" to="-645284559#1" type="veh_passenger"/>