<?xml version="1.0" encoding="UTF-8"?>
<!-- generated on 2019-02-06 15:52:29.434457 by $Id$ via randomTrips.py
  options: 
-->
<routes xmlns:xsi="http://www.w3.org/2001/XMLSchema-instance" xsi:noNamespaceSchemaLocation="http://sumo.dlr.de/xsd/routes_file.xsd">
    <vType id="truck_truck" vClass="truck">
    </vType>
    <trip id="truck0" depart="0.00" departLane="best" from="25407366" to="-141179036#2" type="truck_truck"/>
    <trip id="truck2" depart="4.12" departLane="best" from="333891065#0" to="31027838#0" type="truck_truck"/>
    <trip id="truck3" depart="6.18" departLane="best" from="517998600" to="-190601538" type="truck_truck"/>
    <trip id="truck4" depart="8.24" departLane="best" from="151163917#1" to="-141261874#0" type="truck_truck"/>
    <trip id="truck5" depart="10.30" departLane="best" from="-460787688#0" to="190586232" type="truck_truck"/>
    <trip id="truck6" depart="12.35" departLane="best" from="-141179035#5" to="-431576780" type="truck_truck"/>
    <trip id="truck7" depart="14.41" departLane="best" from="25501955#0" to="22701043#1" type="truck_truck"/>
    <trip id="truck8" depart="16.47" departLane="best" from="-460787688#3" to="23201699" type="truck_truck"/>
    <trip id="truck10" depart="20.59" departLane="best" from="141179035#13" to="-3042238#2" type="truck_truck"/>
    <trip id="truck12" depart="24.71" departLane="best" departSpeed="max" from="-190465775#1" to="-217554187#1" type="truck_truck"/>
    <trip id="truck13" depart="26.77" departLane="best" from="48344707#2" to="245296561#1" type="truck_truck"/>
    <trip id="truck14" depart="28.83" departLane="best" from="206628174#1" to="656299984#1" type="truck_truck"/>
    <trip id="truck16" depart="32.95" departLane="best" from="463057022#0" to="25444569#0" type="truck_truck"/>
    <trip id="truck18" depart="37.06" departLane="best" from="31027837#0" to="-143586355#2" type="truck_truck"/>
    <trip id="truck20" depart="41.18" departLane="best" departSpeed="max" from="-188473746" to="-53721850" type="truck_truck"/>
    <trip id="truck21" depart="43.24" departLane="best" from="-190581793#0" to="-9897177" type="truck_truck"/>
    <trip id="truck22" depart="45.30" departLane="best" from="25400473#1" to="143586213#3" type="truck_truck"/>
    <trip id="truck23" depart="47.36" departLane="best" from="142944253#2" to="-460787688#1" type="truck_truck"/>
    <trip id="truck24" depart="49.42" departLane="best" from="-554713067" to="627882349" type="truck_truck"/>
    <trip id="truck25" depart="51.48" departLane="best" departSpeed="max" from="25501626" to="249741911#0" type="truck_truck"/>
    <trip id="truck26" depart="53.54" departLane="best" departSpeed="max" from="-33041313#1" to="349349451" type="truck_truck"/>
    <trip id="truck27" depart="55.59" departLane="best" from="-31027837#0" to="143586334#0" type="truck_truck"/>
    <trip id="truck28" depart="57.65" departLane="best" from="217558040" to="31028439" type="truck_truck"/>
    <trip id="truck29" depart="59.71" departLane="best" departSpeed="max" from="47854310" to="428817400#1" type="truck_truck"/>
    <trip id="truck30" depart="61.77" departLane="best" departSpeed="max" from="-46102597" to="-141263264#0" type="truck_truck"/>
    <trip id="truck31" depart="63.83" departLane="best" from="118756784" to="-8320141#1" type="truck_truck"/>
    <trip id="truck32" depart="65.89" departLane="best" departSpeed="max" from="-45729831#2" to="637815817#2" type="truck_truck"/>
    <trip id="truck33" depart="67.95" departLane="best" from="516884623" to="141179035#16" type="truck_truck"/>
    <trip id="truck34" depart="70.01" departLane="best" from="25502921#1" to="146482573#3" type="truck_truck"/>
    <trip id="truck35" depart="72.07" departLane="best" from="584225675" to="188476880#2" type="truck_truck"/>
    <trip id="truck37" depart="76.19" departLane="best" from="220387889#0" to="-656095436" type="truck_truck"/>
    <trip id="truck38" depart="78.24" departLane="best" from="23159360#3" to="53436021" type="truck_truck"/>
    <trip id="truck40" depart="82.36" departLane="best" departSpeed="max" from="9897177" to="190601547" type="truck_truck"/>
    <trip id="truck41" depart="84.42" departLane="best" from="-190417294#0" to="-143586355#4" type="truck_truck"/>
    <trip id="truck42" depart="86.48" departLane="best" from="-21594233#5" to="25502121" type="truck_truck"/>
    <trip id="truck43" depart="88.54" departLane="best" from="444316122#0" to="16168075#2" type="truck_truck"/>
    <trip id="truck44" depart="90.60" departLane="best" from="9781305" to="21594797#0" type="truck_truck"/>
    <trip id="truck46" depart="94.72" departLane="best" from="-141137045#2" to="34330328#1" type="truck_truck"/>
    <trip id="truck47" depart="96.78" departLane="best" from="26961484" to="220387887#0" type="truck_truck"/>
    <trip id="truck48" depart="98.84" departLane="best" from="-554713067" to="25505536#4" type="truck_truck"/>
    <trip id="truck49" depart="100.89" departLane="best" from="179060064#1" to="645338231" type="truck_truck"/>
    <trip id="truck50" depart="102.95" departLane="best" from="516884620" to="-659691578" type="truck_truck"/>
    <trip id="truck51" depart="105.01" departLane="best" from="23201600#8" to="-3042236#3" type="truck_truck"/>
    <trip id="truck52" depart="107.07" departLane="best" departSpeed="max" from="419279932#0" to="216122812#0" type="truck_truck"/>
    <trip id="truck53" depart="109.13" departLane="best" from="-10304101" to="141179036#2" type="truck_truck"/>
    <trip id="truck54" depart="111.19" departLane="best" from="-141179035#13" to="606439152" type="truck_truck"/>
    <trip id="truck55" depart="113.25" departLane="best" from="516884628" to="463057029" type="truck_truck"/>
    <trip id="truck56" depart="115.31" departLane="best" departSpeed="max" from="10665805" to="-152176404#1" type="truck_truck"/>
    <trip id="truck57" depart="117.37" departLane="best" from="516884626" to="645284559#1" type="truck_truck"/>
    <trip id="truck58" depart="119.43" departLane="best" departSpeed="max" from="-188476880#3" to="190465797#0" type="truck_truck"/>
    <trip id="truck59" depart="121.49" departLane="best" departSpeed="max" from="188228394#0" to="22761554" type="truck_truck"/>
    <trip id="truck60" depart="123.54" departLane="best" from="-541386221#0" to="516884625" type="truck_truck"/>
    <trip id="truck61" depart="125.60" departLane="best" departSpeed="max" from="152176399#0" to="-460787688#5" type="truck_truck"/>
    <trip id="truck62" depart="127.66" departLane="best" from="21521128" to="351700501" type="truck_truck"/>
    <trip id="truck63" depart="129.72" departLane="best" from="-425050767#1" to="141179035#11" type="truck_truck"/>
    <trip id="truck64" depart="131.78" departLane="best" from="9781304" to="26811422" type="truck_truck"/>
    <trip id="truck65" depart="133.84" departLane="best" from="157109027#0" to="19644867#2" type="truck_truck"/>
    <trip id="truck69" depart="142.08" departLane="best" departSpeed="max" from="-46102597" to="554713067" type="truck_truck"/>
    <trip id="truck70" depart="144.14" departLane="best" departSpeed="max" from="495246282" to="-18761926#1" type="truck_truck"/>
    <trip id="truck72" depart="148.25" departLane="best" departSpeed="max" from="458117703" to="-40154352#1" type="truck_truck"/>
    <trip id="truck73" depart="150.31" departLane="best" from="-190465779#2" to="179060064#0" type="truck_truck"/>
    <trip id="truck74" depart="152.37" departLane="best" departSpeed="max" from="152176399#0" to="189307625" type="truck_truck"/>
    <trip id="truck76" depart="156.49" departLane="best" from="8505164" to="-217554187#1" type="truck_truck"/>
    <trip id="truck77" depart="158.55" departLane="best" from="143586355#0" to="142944231" type="truck_truck"/>
    <trip id="truck78" depart="160.61" departLane="best" from="5007495#2" to="-606696311#0" type="truck_truck"/>
    <trip id="truck79" depart="162.67" departLane="best" from="-39972604#2" to="188228383" type="truck_truck"/>
    <trip id="truck80" depart="164.73" departLane="best" from="151163917#1" to="-9897177" type="truck_truck"/>
    <trip id="truck81" depart="166.78" departLane="best" from="-5009103#0" to="60578527" type="truck_truck"/>
    <trip id="truck83" depart="170.90" departLane="best" departSpeed="max" from="217554187#0" to="-146276277#2" type="truck_truck"/>
    <trip id="truck84" depart="172.96" departLane="best" departSpeed="max" from="653756291#0" to="606439133" type="truck_truck"/>
    <trip id="truck85" depart="175.02" departLane="best" from="485685534#1" to="-333890926" type="truck_truck"/>
    <trip id="truck86" depart="177.08" departLane="best" from="189307622" to="-463057020" type="truck_truck"/>
    <trip id="truck87" depart="179.14" departLane="best" from="142944424" to="8435003#1" type="truck_truck"/>
    <trip id="truck88" depart="181.20" departLane="best" from="180326068#0" to="163125196#1" type="truck_truck"/>
    <trip id="truck90" depart="185.32" departLane="best" from="217558032" to="333902145#4" type="truck_truck"/>
    <trip id="truck91" depart="187.38" departLane="best" from="-27471775#1" to="131675656#0" type="truck_truck"/>
    <trip id="truck92" depart="189.43" departLane="best" departSpeed="max" from="653756291#0" to="23201239#3" type="truck_truck"/>
    <trip id="truck93" depart="191.49" departLane="best" from="21594233#3" to="40150503#3" type="truck_truck"/>
    <trip id="truck94" depart="193.55" departLane="best" from="-143586355#1" to="23201600#2" type="truck_truck"/>
    <trip id="truck96" depart="197.67" departLane="best" from="-3042236#5" to="646033698#0" type="truck_truck"/>
    <trip id="truck97" depart="199.73" departLane="best" departSpeed="max" from="-188473746" to="-40150576#0" type="truck_truck"/>
    <trip id="truck98" depart="201.79" departLane="best" from="23179957" to="31023285#1" type="truck_truck"/>
    <trip id="truck99" depart="203.85" departLane="best" from="-463057022#3" to="-23201239#1" type="truck_truck"/>
    <trip id="truck101" depart="207.97" departLane="best" from="23179956#1" to="25469048#1" type="truck_truck"/>
    <trip id="truck102" depart="210.03" departLane="best" from="146482573#4" to="23201600#12" type="truck_truck"/>
    <trip id="truck103" depart="212.08" departLane="best" from="190601551" to="625856812" type="truck_truck"/>
    <trip id="truck104" depart="214.14" departLane="best" departSpeed="max" from="-428817400#1" to="333902145#1" type="truck_truck"/>
    <trip id="truck105" depart="216.20" departLane="best" from="-469768614" to="146482573#3" type="truck_truck"/>
    <trip id="truck106" depart="218.26" departLane="best" from="258130590#2" to="139785377#0" type="truck_truck"/>
    <trip id="truck107" depart="220.32" departLane="best" from="119390900#0" to="40150576#1" type="truck_truck"/>
    <trip id="truck108" depart="222.38" departLane="best" from="-174299053#5" to="188476880#1" type="truck_truck"/>
    <trip id="truck109" depart="224.44" departLane="best" from="-174302038" to="-46239724" type="truck_truck"/>
    <trip id="truck110" depart="226.50" departLane="best" from="142944253#1" to="-307541272#2" type="truck_truck"/>
    <trip id="truck111" depart="228.56" departLane="best" from="463057029" to="331478122#7" type="truck_truck"/>
    <trip id="truck112" depart="230.62" departLane="best" from="233287122#0" to="8505164" type="truck_truck"/>
    <trip id="truck113" depart="232.68" departLane="best" departSpeed="max" from="25502921#0" to="-141137043#3" type="truck_truck"/>
    <trip id="truck114" depart="234.73" departLane="best" from="460573534#0" to="139785375" type="truck_truck"/>
    <trip id="truck115" depart="236.79" departLane="best" from="25503166#1" to="631613581" type="truck_truck"/>
    <trip id="truck116" depart="238.85" departLane="best" from="-23407090" to="-23165590#0" type="truck_truck"/>
    <trip id="truck118" depart="242.97" departLane="best" from="-606439133" to="245296561#1" type="truck_truck"/>
    <trip id="truck119" depart="245.03" departLane="best" from="327109845#0" to="-446704734#0" type="truck_truck"/>
    <trip id="truck120" depart="247.09" departLane="best" from="25197931#1" to="-662506168#0" type="truck_truck"/>
    <trip id="truck121" depart="249.15" departLane="best" from="190417294#0" to="554713067" type="truck_truck"/>
    <trip id="truck122" depart="251.21" departLane="best" from="48344573#1" to="-21594233#0" type="truck_truck"/>
    <trip id="truck123" depart="253.27" departLane="best" departSpeed="max" from="152176399#0" to="-9897177" type="truck_truck"/>
    <trip id="truck124" depart="255.33" departLane="best" departSpeed="max" from="-121711407" to="42772472" type="truck_truck"/>
    <trip id="truck125" depart="257.38" departLane="best" departSpeed="max" from="25400500" to="-654049725" type="truck_truck"/>
    <trip id="truck128" depart="263.56" departLane="best" from="463057277" to="23201600#10" type="truck_truck"/>
    <trip id="truck129" depart="265.62" departLane="best" from="-25503166#6" to="-24996349#2" type="truck_truck"/>
    <trip id="truck130" depart="267.68" departLane="best" departSpeed="max" from="10665805" to="53721850" type="truck_truck"/>
    <trip id="truck132" depart="271.80" departLane="best" from="53721857" to="-460787688#2" type="truck_truck"/>
    <trip id="truck133" depart="273.86" departLane="best" from="-5009103#0" to="-22700416#0" type="truck_truck"/>
    <trip id="truck135" depart="277.97" departLane="best" from="143586355#6" to="25485694" type="truck_truck"/>
    <trip id="truck136" depart="280.03" departLane="best" from="-27471775#0" to="606439155" type="truck_truck"/>
    <trip id="truck137" depart="282.09" departLane="best" departSpeed="max" from="5009103#0" to="82410227#1" type="truck_truck"/>
    <trip id="truck138" depart="284.15" departLane="best" from="458542845#0" to="516884652" type="truck_truck"/>
    <trip id="truck139" depart="286.21" departLane="best" from="-141179035#2" to="370610345#1" type="truck_truck"/>
    <trip id="truck140" depart="288.27" departLane="best" from="141137045#3" to="606439164" type="truck_truck"/>
    <trip id="truck143" depart="294.45" departLane="best" from="5113251#0" to="5009104#1" type="truck_truck"/>
    <trip id="truck144" depart="296.51" departLane="best" from="18570957#1" to="141137045#3" type="truck_truck"/>
    <trip id="truck145" depart="298.57" departLane="best" from="446704735#0" to="-516884626" type="truck_truck"/>
    <trip id="truck146" depart="300.62" departLane="best" departSpeed="max" from="-141179035#16" to="-419279932#0" type="truck_truck"/>
    <trip id="truck147" depart="302.68" departLane="best" from="139785377#3" to="5113251#0" type="truck_truck"/>
    <trip id="truck148" depart="304.74" departLane="best" from="653756256" to="-9897177" type="truck_truck"/>
    <trip id="truck152" depart="312.98" departLane="best" from="645338239" to="-82410227#0" type="truck_truck"/>
    <trip id="truck153" depart="315.04" departLane="best" from="-21594233#3" to="181361656#3" type="truck_truck"/>
    <trip id="truck154" depart="317.10" departLane="best" from="331478122#7" to="141179035#14" type="truck_truck"/>
    <trip id="truck155" depart="319.16" departLane="best" from="-5113254" to="333396048#0" type="truck_truck"/>
    <trip id="truck156" depart="321.22" departLane="best" from="215080599" to="333902153" type="truck_truck"/>
    <trip id="truck157" depart="323.27" departLane="best" from="333902153" to="31023168#1" type="truck_truck"/>
    <trip id="truck158" depart="325.33" departLane="best" from="25503166#2" to="141179037#3" type="truck_truck"/>
    <trip id="truck159" depart="327.39" departLane="best" from="32752621" to="139785377#2" type="truck_truck"/>
    <trip id="truck160" depart="329.45" departLane="best" departSpeed="max" from="10665808" to="152813991#2" type="truck_truck"/>
    <trip id="truck161" depart="331.51" departLane="best" from="143586355#0" to="123342665#4" type="truck_truck"/>
    <trip id="truck162" depart="333.57" departLane="best" from="-23165590#1" to="16168075#0" type="truck_truck"/>
    <trip id="truck164" depart="337.69" departLane="best" from="554706401#1" to="25407366" type="truck_truck"/>
    <trip id="truck165" depart="339.75" departLane="best" from="-8505168#5" to="22761528" type="truck_truck"/>
    <trip id="truck166" depart="341.81" departLane="best" from="152813962" to="23201239#4" type="truck_truck"/>
    <trip id="truck167" depart="343.87" departLane="best" departSpeed="max" from="25502921#0" to="188791147" type="truck_truck"/>
    <trip id="truck168" depart="345.92" departLane="best" from="161303910" to="-463057020" type="truck_truck"/>
    <trip id="truck169" depart="347.98" departLane="best" from="446704735#1" to="-333902145#4" type="truck_truck"/>
    <trip id="truck170" depart="350.04" departLane="best" departSpeed="max" from="-188476880#3" to="19643597" type="truck_truck"/>
    <trip id="truck171" depart="352.10" departLane="best" from="460573535#0" to="40150503#4" type="truck_truck"/>
    <trip id="truck172" depart="354.16" departLane="best" from="264963988#0" to="-5009103#0" type="truck_truck"/>
    <trip id="truck173" depart="356.22" departLane="best" from="-419279932#1" to="-141179036#1" type="truck_truck"/>
    <trip id="truck176" depart="362.40" departLane="best" departSpeed="max" from="-40150503#4" to="330344155" type="truck_truck"/>
    <trip id="truck177" depart="364.46" departLane="best" from="190465779#0" to="-606439165" type="truck_truck"/>
    <trip id="truck178" depart="366.52" departLane="best" from="25502921#2" to="-139785377#2" type="truck_truck"/>
    <trip id="truck179" depart="368.57" departLane="best" from="370610344" to="42772469#1" type="truck_truck"/>
    <trip id="truck180" depart="370.63" departLane="best" from="-21594233#0" to="174302037" type="truck_truck"/>
    <trip id="truck181" depart="372.69" departLane="best" from="-333902145#3" to="645338237" type="truck_truck"/>
    <trip id="truck182" depart="374.75" departLane="best" from="190586232" to="-146276277#2" type="truck_truck"/>
    <trip id="truck184" depart="378.87" departLane="best" from="181361656#2" to="45748887#0" type="truck_truck"/>
    <trip id="truck185" depart="380.93" departLane="best" from="23190865" to="645284559#3" type="truck_truck"/>
    <trip id="truck186" depart="382.99" departLane="best" from="517031506#0" to="24996349#4" type="truck_truck"/>
    <trip id="truck187" depart="385.05" departLane="best" from="327109846#1" to="190586229" type="truck_truck"/>
    <trip id="truck188" depart="387.11" departLane="best" from="463057022#2" to="22761528" type="truck_truck"/>
    <trip id="truck189" depart="389.16" departLane="best" from="53721850" to="395272650#1" type="truck_truck"/>
    <trip id="truck190" depart="391.22" departLane="best" from="188228392" to="-653756291#0" type="truck_truck"/>
    <trip id="truck192" depart="395.34" departLane="best" from="40150503#2" to="208440383" type="truck_truck"/>
    <trip id="truck193" depart="397.40" departLane="best" from="24438744#3" to="-8505170" type="truck_truck"/>
    <trip id="truck194" depart="399.46" departLane="best" from="-18570957#0" to="111747607#2" type="truck_truck"/>
    <trip id="truck195" depart="401.52" departLane="best" from="-604905865#1" to="141179035#5" type="truck_truck"/>
    <trip id="truck196" depart="403.58" departLane="best" from="21591353#1" to="-25503166#0" type="truck_truck"/>
    <trip id="truck197" depart="405.64" departLane="best" from="31027838#2" to="-174302038" type="truck_truck"/>
    <trip id="truck198" depart="407.70" departLane="best" from="144870968#10" to="22700416#0" type="truck_truck"/>
    <trip id="truck199" depart="409.76" departLane="best" from="146481665#2" to="-458542844#0" type="truck_truck"/>
    <trip id="truck200" depart="411.81" departLane="best" from="151157096#0" to="554706401#1" type="truck_truck"/>
    <trip id="truck201" depart="413.87" departLane="best" from="23159360#1" to="330344153" type="truck_truck"/>
    <trip id="truck202" depart="415.93" departLane="best" from="493493233" to="412020090" type="truck_truck"/>
    <trip id="truck203" depart="417.99" departLane="best" from="142944546#1" to="-139785377#3" type="truck_truck"/>
    <trip id="truck206" depart="424.17" departLane="best" from="146482573#4" to="40150503#2" type="truck_truck"/>
    <trip id="truck207" depart="426.23" departLane="best" departSpeed="max" from="21595198" to="24438744#3" type="truck_truck"/>
    <trip id="truck209" depart="430.35" departLane="best" from="153147529#1" to="-141261874#0" type="truck_truck"/>
    <trip id="truck210" depart="432.41" departLane="best" from="141137047#2" to="31027841#0" type="truck_truck"/>
    <trip id="truck211" depart="434.46" departLane="best" from="143586355#3" to="-333396048#1" type="truck_truck"/>
    <trip id="truck212" depart="436.52" departLane="best" from="188015327#0" to="-24996349#2" type="truck_truck"/>
    <trip id="truck213" depart="438.58" departLane="best" from="24282865#1" to="-141179037#1" type="truck_truck"/>
    <trip id="truck214" depart="440.64" departLane="best" from="-24282865#0" to="188476880#3" type="truck_truck"/>
    <trip id="truck215" depart="442.70" departLane="best" departSpeed="max" from="-45729831#2" to="141179037#2" type="truck_truck"/>
    <trip id="truck216" depart="444.76" departLane="best" from="38781032" to="143586334#0" type="truck_truck"/>
    <trip id="truck217" depart="446.82" departLane="best" from="370610345#0" to="463057029" type="truck_truck"/>
    <trip id="truck218" depart="448.88" departLane="best" departSpeed="max" from="-5113251#1" to="-190465817#5" type="truck_truck"/>
    <trip id="truck219" depart="450.94" departLane="best" from="-141179035#13" to="220387887#6" type="truck_truck"/>
    <trip id="truck220" depart="453.00" departLane="best" from="25501955#1" to="431576781#0" type="truck_truck"/>
    <trip id="truck222" depart="457.11" departLane="best" from="637815817#0" to="-431576781#0" type="truck_truck"/>
    <trip id="truck223" depart="459.17" departLane="best" from="-141179035#14" to="-3042236#3" type="truck_truck"/>
    <trip id="truck224" depart="461.23" departLane="best" from="-23165590#0" to="307556944#1" type="truck_truck"/>
    <trip id="truck225" depart="463.29" departLane="best" from="22700416#0" to="-47365571" type="truck_truck"/>
    <trip id="truck226" depart="465.35" departLane="best" from="-32752621" to="246109025#1" type="truck_truck"/>
    <trip id="truck227" depart="467.41" departLane="best" from="36268330#1" to="-22911254#1" type="truck_truck"/>
    <trip id="truck228" depart="469.47" departLane="best" from="460573536" to="653773419#0" type="truck_truck"/>
    <trip id="truck229" depart="471.53" departLane="best" from="-21594233#2" to="-141179036#3" type="truck_truck"/>
    <trip id="truck230" depart="473.59" departLane="best" from="645338232#0" to="146482573#5" type="truck_truck"/>
    <trip id="truck231" depart="475.65" departLane="best" from="315771480#0" to="-188791147" type="truck_truck"/>
    <trip id="truck232" depart="477.71" departLane="best" from="3042238#1" to="25502121" type="truck_truck"/>
    <trip id="truck233" depart="479.76" departLane="best" from="-190601538" to="42772472" type="truck_truck"/>
    <trip id="truck235" depart="483.88" departLane="best" from="425050767#1" to="142944258" type="truck_truck"/>
    <trip id="truck236" depart="485.94" departLane="best" from="152176405#0" to="143586280#5" type="truck_truck"/>
    <trip id="truck237" depart="488.00" departLane="best" from="190465813" to="142944244#2" type="truck_truck"/>
    <trip id="truck238" depart="490.06" departLane="best" from="487411728#0" to="46102582" type="truck_truck"/>
    <trip id="truck239" depart="492.12" departLane="best" from="-21591353#0" to="646033698#0" type="truck_truck"/>
    <trip id="truck240" depart="494.18" departLane="best" from="25400473#1" to="463057022#2" type="truck_truck"/>
    <trip id="truck241" depart="496.24" departLane="best" from="31027838#4" to="184627082#0" type="truck_truck"/>
    <trip id="truck242" depart="498.30" departLane="best" from="-604487632#0" to="458542845#0" type="truck_truck"/>
    <trip id="truck243" depart="500.35" departLane="best" from="210979056" to="190465790#1" type="truck_truck"/>
    <trip id="truck244" depart="502.41" departLane="best" from="152814002#2" to="355309979" type="truck_truck"/>
    <trip id="truck246" depart="506.53" departLane="best" from="463057022#2" to="-190581793#0" type="truck_truck"/>
    <trip id="truck247" depart="508.59" departLane="best" from="516884633#2" to="-606439165" type="truck_truck"/>
    <trip id="truck248" depart="510.65" departLane="best" from="188015323#0" to="24996349#0" type="truck_truck"/>
    <trip id="truck249" depart="512.71" departLane="best" from="142944424" to="-141261874#0" type="truck_truck"/>
    <trip id="truck250" depart="514.77" departLane="best" from="488642460" to="-38563900" type="truck_truck"/>
    <trip id="truck251" depart="516.83" departLane="best" from="141179035#13" to="516884652" type="truck_truck"/>
    <trip id="truck252" depart="518.89" departLane="best" departSpeed="max" from="308227987" to="-9780341#1" type="truck_truck"/>
    <trip id="truck253" depart="520.95" departLane="best" from="-141137043#2" to="645284559#3" type="truck_truck"/>
    <trip id="truck254" depart="523.00" departLane="best" departSpeed="max" from="-188476880#3" to="34330328#0" type="truck_truck"/>
    <trip id="truck255" depart="525.06" departLane="best" from="190417294#0" to="40286866" type="truck_truck"/>
    <trip id="truck256" depart="527.12" departLane="best" from="3042238#1" to="26623996#0" type="truck_truck"/>
    <trip id="truck257" depart="529.18" departLane="best" from="190465757" to="45519022#0" type="truck_truck"/>
    <trip id="truck259" depart="533.30" departLane="best" from="3042239#1" to="141137045#5" type="truck_truck"/>
    <trip id="truck260" depart="535.36" departLane="best" from="23129765#2" to="190465770#0" type="truck_truck"/>
    <trip id="truck261" depart="537.42" departLane="best" departSpeed="max" from="197365079" to="174302038" type="truck_truck"/>
    <trip id="truck262" depart="539.48" departLane="best" from="355309978" to="141261874#1" type="truck_truck"/>
    <trip id="truck263" depart="541.54" departLane="best" from="31023169#1" to="-8505168#1" type="truck_truck"/>
    <trip id="truck264" depart="543.60" departLane="best" departSpeed="max" from="-5113251#1" to="-23201239#1" type="truck_truck"/>
    <trip id="truck265" depart="545.65" departLane="best" from="206628174#1" to="40288842#1" type="truck_truck"/>
    <trip id="truck266" depart="547.71" departLane="best" departSpeed="max" from="-349349451" to="-463057022#3" type="truck_truck"/>
    <trip id="truck267" depart="549.77" departLane="best" from="188822506#0" to="348251627#2" type="truck_truck"/>
    <trip id="truck268" depart="551.83" departLane="best" from="82410227#1" to="21591353#0" type="truck_truck"/>
    <trip id="truck269" depart="553.89" departLane="best" from="-653756292" to="-217557693#2" type="truck_truck"/>
    <trip id="truck270" depart="555.95" departLane="best" departSpeed="max" from="-40150503#4" to="-516884626" type="truck_truck"/>
    <trip id="truck271" depart="558.01" departLane="best" departSpeed="max" from="-348251630#1" to="-141179035#1" type="truck_truck"/>
    <trip id="truck272" depart="560.07" departLane="best" from="20297117" to="-8505168#6" type="truck_truck"/>
    <trip id="truck274" depart="564.19" departLane="best" from="307556944#0" to="-24996349#0" type="truck_truck"/>
    <trip id="truck276" depart="568.30" departLane="best" from="5113254" to="23179673#2" type="truck_truck"/>
    <trip id="truck277" depart="570.36" departLane="best" from="188228381#0" to="188015317" type="truck_truck"/>
    <trip id="truck278" depart="572.42" departLane="best" departSpeed="max" from="-349349451" to="-146276277#2" type="truck_truck"/>
    <trip id="truck279" depart="574.48" departLane="best" from="609032935" to="190465775#1" type="truck_truck"/>
    <trip id="truck280" depart="576.54" departLane="best" from="460787688#2" to="152176399#2" type="truck_truck"/>
    <trip id="truck282" depart="580.66" departLane="best" departSpeed="max" from="-143586308#4" to="-26623996#1" type="truck_truck"/>
    <trip id="truck283" depart="582.72" departLane="best" from="9780341#0" to="-23201239#1" type="truck_truck"/>
    <trip id="truck284" depart="584.78" departLane="best" from="400216393#0" to="245296561#1" type="truck_truck"/>
    <trip id="truck285" depart="586.84" departLane="best" from="431576781#1" to="-5113251#0" type="truck_truck"/>
    <trip id="truck286" depart="588.89" departLane="best" from="190601549" to="188228389" type="truck_truck"/>
    <trip id="truck287" depart="590.95" departLane="best" from="8505182" to="141137045#4" type="truck_truck"/>
    <trip id="truck288" depart="593.01" departLane="best" from="240515083" to="249741911#1" type="truck_truck"/>
    <trip id="truck289" depart="595.07" departLane="best" from="333902145#3" to="645284559#2" type="truck_truck"/>
    <trip id="truck290" depart="597.13" departLane="best" departSpeed="max" from="25503166#0" to="-307541272#1" type="truck_truck"/>
    <trip id="truck291" depart="599.19" departLane="best" from="-333890926" to="-188791146#2" type="truck_truck"/>
    <trip id="truck292" depart="601.25" departLane="best" departSpeed="max" from="-121711407" to="188228389" type="truck_truck"/>
    <trip id="truck293" depart="603.31" departLane="best" departSpeed="max" from="-46102597" to="331478129#3" type="truck_truck"/>
    <trip id="truck295" depart="607.43" departLane="best" from="3042236#2" to="60578531#1" type="truck_truck"/>
    <trip id="truck296" depart="609.49" departLane="best" from="43145613#1" to="25502117" type="truck_truck"/>
    <trip id="truck298" depart="613.60" departLane="best" departSpeed="max" from="25501626" to="554713073" type="truck_truck"/>