<?xml version="1.0" encoding="UTF-8"?>
<!-- generated on 2019-02-06 15:52:11.043191 by $Id$ via randomTrips.py
  options: 
-->
<routes xmlns:xsi="http://www.w3.org/2001/XMLSchema-instance" xsi:noNamespaceSchemaLocation="http://sumo.dlr.de/xsd/routes_file.xsd">
    <vType id="bike_bicycle" vClass="bicycle">
    </vType>
    <trip id="bike0" depart="0.00" departLane="best" from="292815352#1" to="-141179037#1" type="bike_bicycle"/>
    <trip id="bike1" depart="1.95" departLane="best" from="-460787688#2" to="-42048399#1" type="bike_bicycle"/>
    <trip id="bike2" depart="3.89" departLane="best" departSpeed="max" from="361916993" to="333393247#2" type="bike_bicycle"/>
    <trip id="bike3" depart="5.84" departLane="best" from="554706401#1" to="-190465817#4" type="bike_bicycle"/>
    <trip id="bike4" depart="7.78" departLane="best" from="141873960#0" to="-143586280#3" type="bike_bicycle"/>
    <trip id="bike5" depart="9.73" departLane="best" departSpeed="max" from="-346987725" to="188810427#2" type="bike_bicycle"/>
    <trip id="bike7" depart="13.62" departLane="best" from="307556942" to="22774169#2" type="bike_bicycle"/>
    <trip id="bike8" depart="15.56" departLane="best" from="-34851340#0" to="25197931#2" type="bike_bicycle"/>
    <trip id="bike9" depart="17.51" departLane="best" from="448939460" to="-119390895#15" type="bike_bicycle"/>
    <trip id="bike10" depart="19.46" departLane="best" from="440252808#1" to="333507774#0" type="bike_bicycle"/>
    <trip id="bike11" depart="21.40" departLane="best" from="-611783714#1" to="-32958564#7" type="bike_bicycle"/>
    <trip id="bike12" depart="23.35" departLane="best" from="653773415#3" to="-91904005" type="bike_bicycle"/>
    <trip id="bike14" depart="27.24" departLane="best" from="48344573#0" to="25610215#0" type="bike_bicycle"/>
    <trip id="bike15" depart="29.18" departLane="best" from="44529404" to="36268330#1" type="bike_bicycle"/>
    <trip id="bike16" depart="31.13" departLane="best" from="190465817#6" to="71742190" type="bike_bicycle"/>
    <trip id="bike17" depart="33.08" departLane="best" from="-9702437#2" to="23165591#0" type="bike_bicycle"/>
    <trip id="bike18" depart="35.02" departLane="best" from="463057022#3" to="292815353" type="bike_bicycle"/>
    <trip id="bike19" depart="36.97" departLane="best" departSpeed="max" from="501691376#0" to="243531050" type="bike_bicycle"/>
    <trip id="bike20" depart="38.91" departLane="best" from="333396052#0" to="-164050962" type="bike_bicycle"/>
    <trip id="bike21" depart="40.86" departLane="best" departSpeed="max" from="-371964291" to="-598319283#2" type="bike_bicycle"/>
    <trip id="bike23" depart="44.75" departLane="best" from="-188476880#1" to="-53721855" type="bike_bicycle"/>
    <trip id="bike24" depart="46.69" departLane="best" from="26949512#1" to="119390895#8" type="bike_bicycle"/>
    <trip id="bike25" depart="48.64" departLane="best" departSpeed="max" from="-8298127#1" to="-396739451" type="bike_bicycle"/>
    <trip id="bike26" depart="50.59" departLane="best" departSpeed="max" from="-451930795" to="637815817#0" type="bike_bicycle"/>
    <trip id="bike28" depart="54.48" departLane="best" from="-32752621" to="36268326#2" type="bike_bicycle"/>
    <trip id="bike29" depart="56.42" departLane="best" from="-307556942" to="139787573" type="bike_bicycle"/>
    <trip id="bike30" depart="58.37" departLane="best" from="93762556#1" to="31027838#4" type="bike_bicycle"/>
    <trip id="bike31" depart="60.31" departLane="best" from="220387887#0" to="333396046#0" type="bike_bicycle"/>
    <trip id="bike32" depart="62.26" departLane="best" from="469768614" to="407197807#2" type="bike_bicycle"/>
    <trip id="bike33" depart="64.20" departLane="best" departSpeed="max" from="-379471200" to="-143586350#0" type="bike_bicycle"/>
    <trip id="bike34" depart="66.15" departLane="best" from="-543059990#0" to="-511210379" type="bike_bicycle"/>
    <trip id="bike35" depart="68.10" departLane="best" from="-335355018#0" to="645338225" type="bike_bicycle"/>
    <trip id="bike36" depart="70.04" departLane="best" departSpeed="max" from="516884651" to="-64648387#2" type="bike_bicycle"/>
    <trip id="bike38" depart="73.93" departLane="best" from="604905865#0" to="164050998#0" type="bike_bicycle"/>
    <trip id="bike39" depart="75.88" departLane="best" from="-446704734#2" to="-464431267#11" type="bike_bicycle"/>
    <trip id="bike40" depart="77.82" departLane="best" from="22701043#3" to="-499499321" type="bike_bicycle"/>
    <trip id="bike41" depart="79.77" departLane="best" from="23201600#3" to="566274278#0" type="bike_bicycle"/>
    <trip id="bike42" depart="81.72" departLane="best" from="121708058#1" to="-419279932#0" type="bike_bicycle"/>
    <trip id="bike43" depart="83.66" departLane="best" from="9781304" to="190465779#0" type="bike_bicycle"/>
    <trip id="bike45" depart="87.55" departLane="best" departSpeed="max" from="-197389603" to="30616382" type="bike_bicycle"/>
    <trip id="bike46" depart="89.50" departLane="best" from="425050767#1" to="144870968#11" type="bike_bicycle"/>
    <trip id="bike47" depart="91.44" departLane="best" from="-164050983" to="141137045#3" type="bike_bicycle"/>
    <trip id="bike48" depart="93.39" departLane="best" from="97662628#0" to="208440383" type="bike_bicycle"/>
    <trip id="bike49" depart="95.33" departLane="best" from="665684610#1" to="507950426#1" type="bike_bicycle"/>
    <trip id="bike50" depart="97.28" departLane="best" departSpeed="max" from="-114423898" to="346987723#0" type="bike_bicycle"/>
    <trip id="bike51" depart="99.23" departLane="best" from="330345719#1" to="217558040" type="bike_bicycle"/>
    <trip id="bike52" depart="101.17" departLane="best" departSpeed="max" from="-451930795" to="31027841#1" type="bike_bicycle"/>
    <trip id="bike53" depart="103.12" departLane="best" from="-204552608#1" to="153147535" type="bike_bicycle"/>
    <trip id="bike54" depart="105.06" departLane="best" from="152176400#2" to="652513926" type="bike_bicycle"/>
    <trip id="bike56" depart="108.95" departLane="best" from="174302038" to="-333396491" type="bike_bicycle"/>
    <trip id="bike57" depart="110.90" departLane="best" from="604471815" to="516884637#1" type="bike_bicycle"/>
    <trip id="bike58" depart="112.84" departLane="best" from="-496730538#1" to="31027838#0" type="bike_bicycle"/>
    <trip id="bike59" depart="114.79" departLane="best" from="24996349#3" to="-32958564#0" type="bike_bicycle"/>
    <trip id="bike60" depart="116.74" departLane="best" from="381540198#0" to="220387889#0" type="bike_bicycle"/>
    <trip id="bike61" depart="118.68" departLane="best" from="407193793#0" to="210979056" type="bike_bicycle"/>
    <trip id="bike62" depart="120.63" departLane="best" departSpeed="max" from="-100290513" to="-659691578" type="bike_bicycle"/>
    <trip id="bike64" depart="124.52" departLane="best" from="516892195" to="464431267#11" type="bike_bicycle"/>
    <trip id="bike65" depart="126.46" departLane="best" from="-516884637#0" to="-164050996#0" type="bike_bicycle"/>
    <trip id="bike67" depart="130.35" departLane="best" from="-174299074" to="184349167#0" type="bike_bicycle"/>
    <trip id="bike68" depart="132.30" departLane="best" from="-164050996#2" to="39544470#5" type="bike_bicycle"/>
    <trip id="bike69" depart="134.25" departLane="best" from="38837262#0" to="-25503166#0" type="bike_bicycle"/>
    <trip id="bike70" depart="136.19" departLane="best" from="164050975" to="23159360#1" type="bike_bicycle"/>
    <trip id="bike71" depart="138.14" departLane="best" from="-446704734#2" to="516884639#0" type="bike_bicycle"/>
    <trip id="bike72" depart="140.08" departLane="best" from="142944231" to="-40150576#0" type="bike_bicycle"/>
    <trip id="bike73" depart="142.03" departLane="best" from="190601547" to="36268330#1" type="bike_bicycle"/>
    <trip id="bike74" depart="143.97" departLane="best" from="-333420244" to="-646042384#2" type="bike_bicycle"/>
    <trip id="bike75" depart="145.92" departLane="best" from="9702437#3" to="32947385#1" type="bike_bicycle"/>
    <trip id="bike76" depart="147.87" departLane="best" from="143586280#4" to="190465817#5" type="bike_bicycle"/>
    <trip id="bike77" depart="149.81" departLane="best" from="-228186366#1" to="-425050767#1" type="bike_bicycle"/>
    <trip id="bike80" depart="155.65" departLane="best" from="-164050997" to="30996538#4" type="bike_bicycle"/>
    <trip id="bike83" depart="161.48" departLane="best" from="-39977162#0" to="331478122#7" type="bike_bicycle"/>
    <trip id="bike84" depart="163.43" departLane="best" from="-345469504#0" to="-25505536#1" type="bike_bicycle"/>
    <trip id="bike85" depart="165.38" departLane="best" from="631613583#1" to="23774300#0" type="bike_bicycle"/>
    <trip id="bike86" depart="167.32" departLane="best" departSpeed="max" from="164050969" to="42048401#0" type="bike_bicycle"/>
    <trip id="bike87" depart="169.27" departLane="best" from="44530694" to="-339782708#1" type="bike_bicycle"/>
    <trip id="bike88" depart="171.21" departLane="best" departSpeed="max" from="-184349168#1" to="152813965#0" type="bike_bicycle"/>
    <trip id="bike89" depart="173.16" departLane="best" departSpeed="max" from="142944240#0" to="174299056#4" type="bike_bicycle"/>
    <trip id="bike90" depart="175.10" departLane="best" from="333902146" to="333393241#3" type="bike_bicycle"/>
    <trip id="bike91" depart="177.05" departLane="best" from="8496681#1" to="-22701043#2" type="bike_bicycle"/>
    <trip id="bike92" depart="178.99" departLane="best" from="129380148#1" to="-95968171" type="bike_bicycle"/>
    <trip id="bike93" depart="180.94" departLane="best" departSpeed="max" from="501691376#0" to="-464431267#6" type="bike_bicycle"/>
    <trip id="bike94" depart="182.89" departLane="best" from="-333396054#0" to="164050973" type="bike_bicycle"/>
    <trip id="bike96" depart="186.78" departLane="best" from="-42048376#1" to="606450769" type="bike_bicycle"/>
    <trip id="bike97" depart="188.72" departLane="best" from="143586355#1" to="509204459#1" type="bike_bicycle"/>
    <trip id="bike98" depart="190.67" departLane="best" from="21594233#5" to="-164050974" type="bike_bicycle"/>
    <trip id="bike99" depart="192.61" departLane="best" from="9783230" to="464496601" type="bike_bicycle"/>
    <trip id="bike100" depart="194.56" departLane="best" from="659691579" to="609026399#0" type="bike_bicycle"/>
    <trip id="bike101" depart="196.51" departLane="best" from="487411728#0" to="-333396034#0" type="bike_bicycle"/>
    <trip id="bike102" depart="198.45" departLane="best" from="164050996#6" to="-40288842#1" type="bike_bicycle"/>
    <trip id="bike103" depart="200.40" departLane="best" from="123342665#3" to="-164050996#12" type="bike_bicycle"/>
    <trip id="bike104" depart="202.34" departLane="best" from="-9702437#3" to="8505168#0" type="bike_bicycle"/>
    <trip id="bike105" depart="204.29" departLane="best" from="-448979129" to="42048399#1" type="bike_bicycle"/>
    <trip id="bike106" depart="206.23" departLane="best" from="152813962" to="144870968#8" type="bike_bicycle"/>
    <trip id="bike108" depart="210.12" departLane="best" departSpeed="max" from="218777792" to="345469504#1" type="bike_bicycle"/>
    <trip id="bike109" depart="212.07" departLane="best" from="-26623996#1" to="-60578578#0" type="bike_bicycle"/>
    <trip id="bike110" depart="214.02" departLane="best" from="659691578" to="24438744#1" type="bike_bicycle"/>
    <trip id="bike111" depart="215.96" departLane="best" from="19644867#1" to="380398480#0" type="bike_bicycle"/>
    <trip id="bike113" depart="219.85" departLane="best" from="179060064#1" to="495218096" type="bike_bicycle"/>
    <trip id="bike114" depart="221.80" departLane="best" from="-295931067#0" to="656328340" type="bike_bicycle"/>
    <trip id="bike115" depart="223.74" departLane="best" from="-174299056#3" to="-333891050" type="bike_bicycle"/>
    <trip id="bike116" depart="225.69" departLane="best" from="240518004" to="333393246#0" type="bike_bicycle"/>
    <trip id="bike117" depart="227.63" departLane="best" from="-38563903#1" to="-245823597#1" type="bike_bicycle"/>
    <trip id="bike118" depart="229.58" departLane="best" from="53721857" to="-464431267#10" type="bike_bicycle"/>
    <trip id="bike119" depart="231.53" departLane="best" from="240515083" to="295931067#0" type="bike_bicycle"/>
    <trip id="bike120" depart="233.47" departLane="best" from="141263264#0" to="246109025#1" type="bike_bicycle"/>
    <trip id="bike121" depart="235.42" departLane="best" from="188791146#0" to="636624654" type="bike_bicycle"/>
    <trip id="bike122" depart="237.36" departLane="best" departSpeed="max" from="-333878203#1" to="339782709#0" type="bike_bicycle"/>
    <trip id="bike123" depart="239.31" departLane="best" from="-40150503#2" to="141809043#2" type="bike_bicycle"/>
    <trip id="bike124" depart="241.25" departLane="best" from="32958564#7" to="-607492161#0" type="bike_bicycle"/>
    <trip id="bike125" depart="243.20" departLane="best" from="-554713074" to="381525476#1" type="bike_bicycle"/>
    <trip id="bike126" depart="245.15" departLane="best" from="-164051000#10" to="164050996#8" type="bike_bicycle"/>
    <trip id="bike128" depart="249.04" departLane="best" from="-164051000#12" to="-40154352#1" type="bike_bicycle"/>
    <trip id="bike129" depart="250.98" departLane="best" from="-448979129" to="631613581" type="bike_bicycle"/>
    <trip id="bike130" depart="252.93" departLane="best" from="517031505" to="516892200" type="bike_bicycle"/>
    <trip id="bike131" depart="254.87" departLane="best" from="-8298127#0" to="-32958577" type="bike_bicycle"/>
    <trip id="bike132" depart="256.82" departLane="best" from="464431267#1" to="333878203#1" type="bike_bicycle"/>
    <trip id="bike133" depart="258.76" departLane="best" from="25407493#0" to="8505168#6" type="bike_bicycle"/>
    <trip id="bike136" depart="264.60" departLane="best" from="314158208#0" to="645284559#1" type="bike_bicycle"/>
    <trip id="bike137" depart="266.55" departLane="best" from="-24282865#1" to="-243530829#2" type="bike_bicycle"/>
    <trip id="bike138" depart="268.49" departLane="best" from="-190465817#4" to="23165593#2" type="bike_bicycle"/>
    <trip id="bike139" depart="270.44" departLane="best" from="-45846095#1" to="25610215#3" type="bike_bicycle"/>
    <trip id="bike140" depart="272.38" departLane="best" from="333507774#0" to="-381525479#0" type="bike_bicycle"/>
    <trip id="bike143" depart="278.22" departLane="best" from="480045336" to="-21594233#1" type="bike_bicycle"/>
    <trip id="bike144" depart="280.17" departLane="best" departSpeed="max" from="142944240#0" to="-53157465#0" type="bike_bicycle"/>
    <trip id="bike145" depart="282.11" departLane="best" from="-102693254#0" to="407193793#1" type="bike_bicycle"/>
    <trip id="bike146" depart="284.06" departLane="best" from="275266742" to="-496730540#0" type="bike_bicycle"/>
    <trip id="bike148" depart="287.95" departLane="best" from="142944265" to="-119395907#1" type="bike_bicycle"/>
    <trip id="bike149" depart="289.89" departLane="best" from="-164051572#0" to="525949273#1" type="bike_bicycle"/>
    <trip id="bike150" depart="291.84" departLane="best" from="584225680#4" to="228186366#0" type="bike_bicycle"/>
    <trip id="bike151" depart="293.79" departLane="best" from="464431267#12" to="245823596#2" type="bike_bicycle"/>
    <trip id="bike152" depart="295.73" departLane="best" from="-25505523#0" to="-25501912#0" type="bike_bicycle"/>
    <trip id="bike153" depart="297.68" departLane="best" from="-516884638#1" to="576084989#1" type="bike_bicycle"/>
    <trip id="bike154" depart="299.62" departLane="best" from="428799101" to="507950425" type="bike_bicycle"/>
    <trip id="bike155" depart="301.57" departLane="best" from="576084989#2" to="-39972604#2" type="bike_bicycle"/>
    <trip id="bike156" depart="303.51" departLane="best" from="-42048376#0" to="-23165590#0" type="bike_bicycle"/>
    <trip id="bike157" depart="305.46" departLane="best" from="407196120" to="526877522" type="bike_bicycle"/>
    <trip id="bike158" depart="307.40" departLane="best" from="141137043#1" to="295931067#4" type="bike_bicycle"/>
    <trip id="bike159" depart="309.35" departLane="best" from="-26623996#0" to="627882342" type="bike_bicycle"/>
    <trip id="bike160" depart="311.30" departLane="best" from="509204459#1" to="78797030" type="bike_bicycle"/>
    <trip id="bike161" depart="313.24" departLane="best" from="450274076" to="517998602" type="bike_bicycle"/>
    <trip id="bike162" depart="315.19" departLane="best" from="-139785377#3" to="378906212#0" type="bike_bicycle"/>
    <trip id="bike163" depart="317.13" departLane="best" from="-604487632#0" to="628277401#1" type="bike_bicycle"/>
    <trip id="bike164" depart="319.08" departLane="best" from="431576782" to="5113254" type="bike_bicycle"/>
    <trip id="bike165" depart="321.02" departLane="best" from="450274067" to="-507950426#0" type="bike_bicycle"/>
    <trip id="bike166" depart="322.97" departLane="best" from="42048376#0" to="-23197390#6" type="bike_bicycle"/>
    <trip id="bike168" depart="326.86" departLane="best" from="-361916999" to="45846095#2" type="bike_bicycle"/>
    <trip id="bike169" depart="328.81" departLane="best" from="153995180#3" to="-631613575" type="bike_bicycle"/>
    <trip id="bike170" depart="330.75" departLane="best" from="428641679#0" to="-429129646" type="bike_bicycle"/>
    <trip id="bike171" depart="332.70" departLane="best" from="-137373534#0" to="-346987723#0" type="bike_bicycle"/>
    <trip id="bike172" depart="334.64" departLane="best" from="-598319283#2" to="51260012" type="bike_bicycle"/>
    <trip id="bike173" depart="336.59" departLane="best" from="659348612#0" to="-543059990#0" type="bike_bicycle"/>
    <trip id="bike175" depart="340.48" departLane="best" from="83075293#1" to="217557693#2" type="bike_bicycle"/>
    <trip id="bike176" depart="342.43" departLane="best" from="645284559#2" to="-243530829#2" type="bike_bicycle"/>
    <trip id="bike177" depart="344.37" departLane="best" from="665684608#1" to="-333396490#2" type="bike_bicycle"/>
    <trip id="bike178" depart="346.32" departLane="best" from="656676185#5" to="-501691376#0" type="bike_bicycle"/>
    <trip id="bike179" depart="348.26" departLane="best" from="-194028632" to="153147535" type="bike_bicycle"/>
    <trip id="bike180" depart="350.21" departLane="best" from="333902145#3" to="-646044828" type="bike_bicycle"/>
    <trip id="bike181" depart="352.15" departLane="best" from="24796114" to="190465787" type="bike_bicycle"/>
    <trip id="bike182" depart="354.10" departLane="best" departSpeed="max" from="102693250" to="243530829#3" type="bike_bicycle"/>
    <trip id="bike183" depart="356.04" departLane="best" from="-425050767#0" to="333891065#3" type="bike_bicycle"/>
    <trip id="bike185" depart="359.94" departLane="best" from="190581795" to="346987719#1" type="bike_bicycle"/>
    <trip id="bike187" depart="363.83" departLane="best" from="-665684613#1" to="-174299056#1" type="bike_bicycle"/>
    <trip id="bike188" depart="365.77" departLane="best" from="314405033#1" to="-82411618#0" type="bike_bicycle"/>
    <trip id="bike189" depart="367.72" departLane="best" from="-53436293" to="487411728#0" type="bike_bicycle"/>
    <trip id="bike190" depart="369.66" departLane="best" from="333512780#2" to="-607492167" type="bike_bicycle"/>
    <trip id="bike191" depart="371.61" departLane="best" from="-516884638#5" to="142944546#2" type="bike_bicycle"/>
    <trip id="bike192" depart="373.55" departLane="best" from="129380148#1" to="-60578505" type="bike_bicycle"/>
    <trip id="bike193" depart="375.50" departLane="best" from="-23197390#3" to="143586355#4" type="bike_bicycle"/>
    <trip id="bike195" depart="379.39" departLane="best" departSpeed="max" from="584225676" to="27471775#0" type="bike_bicycle"/>
    <trip id="bike198" depart="385.23" departLane="best" from="142944295#1" to="24438744#3" type="bike_bicycle"/>
    <trip id="bike200" depart="389.12" departLane="best" departSpeed="max" from="143586350#0" to="-40288842#1" type="bike_bicycle"/>
    <trip id="bike201" depart="391.06" departLane="best" departSpeed="max" from="164050969" to="5823609" type="bike_bicycle"/>
    <trip id="bike202" depart="393.01" departLane="best" from="428799101" to="-333396054#0" type="bike_bicycle"/>
    <trip id="bike203" depart="394.96" departLane="best" from="-174299073#1" to="190465810" type="bike_bicycle"/>
    <trip id="bike204" depart="396.90" departLane="best" from="26623996#0" to="-8505168#3" type="bike_bicycle"/>
    <trip id="bike205" depart="398.85" departLane="best" from="45846095#0" to="381525460#2" type="bike_bicycle"/>
    <trip id="bike206" depart="400.79" departLane="best" from="32958569#0" to="-425050767#1" type="bike_bicycle"/>
    <trip id="bike207" depart="402.74" departLane="best" from="-333396492#2" to="-141179036#3" type="bike_bicycle"/>
    <trip id="bike208" depart="404.68" departLane="best" from="-407196121#0" to="174302041#1" type="bike_bicycle"/>
    <trip id="bike211" depart="410.52" departLane="best" from="-333396061#4" to="333396492#2" type="bike_bicycle"/>
    <trip id="bike212" depart="412.47" departLane="best" from="174299055#1" to="-46239724" type="bike_bicycle"/>
    <trip id="bike214" depart="416.36" departLane="best" from="378906222#18" to="40288934#0" type="bike_bicycle"/>
    <trip id="bike215" depart="418.30" departLane="best" from="-190465817#3" to="146482573#2" type="bike_bicycle"/>
    <trip id="bike216" depart="420.25" departLane="best" from="-32958564#8" to="654049725" type="bike_bicycle"/>
    <trip id="bike217" depart="422.19" departLane="best" departSpeed="max" from="188228394#0" to="-164050973" type="bike_bicycle"/>
    <trip id="bike218" depart="424.14" departLane="best" from="-419279932#1" to="487411728#1" type="bike_bicycle"/>
    <trip id="bike219" depart="426.09" departLane="best" from="152813979#0" to="444316122#0" type="bike_bicycle"/>
    <trip id="bike220" depart="428.03" departLane="best" from="327109845#1" to="8505182" type="bike_bicycle"/>
    <trip id="bike221" depart="429.98" departLane="best" from="24282865#1" to="64648387#0" type="bike_bicycle"/>
    <trip id="bike222" depart="431.92" departLane="best" from="554706400#0" to="26811422" type="bike_bicycle"/>
    <trip id="bike223" depart="433.87" departLane="best" from="333512780#1" to="188810427#0" type="bike_bicycle"/>
    <trip id="bike224" depart="435.81" departLane="best" from="463057027#1" to="23129765#0" type="bike_bicycle"/>
    <trip id="bike225" depart="437.76" departLane="best" departSpeed="max" from="567513654" to="378906222#22" type="bike_bicycle"/>
    <trip id="bike226" depart="439.70" departLane="best" from="164050973" to="-496730533#1" type="bike_bicycle"/>
    <trip id="bike227" depart="441.65" departLane="best" from="-407197807#5" to="31023169#1" type="bike_bicycle"/>
    <trip id="bike228" depart="443.60" departLane="best" from="38837262#0" to="192241303" type="bike_bicycle"/>
    <trip id="bike229" depart="445.54" departLane="best" from="25610215#0" to="-518004768" type="bike_bicycle"/>
    <trip id="bike230" depart="447.49" departLane="best" departSpeed="max" from="-171525897" to="-584225680#4" type="bike_bicycle"/>
    <trip id="bike231" depart="449.43" departLane="best" from="-45845996" to="-654883035" type="bike_bicycle"/>
    <trip id="bike232" depart="451.38" departLane="best" from="193267397" to="-292277146" type="bike_bicycle"/>
    <trip id="bike233" depart="453.32" departLane="best" from="-380470017#1" to="333396487#1" type="bike_bicycle"/>
    <trip id="bike234" depart="455.27" departLane="best" from="333396054#5" to="-164051000#13" type="bike_bicycle"/>
    <trip id="bike235" depart="457.22" departLane="best" from="141137045#1" to="22761468#4" type="bike_bicycle"/>
    <trip id="bike236" depart="459.16" departLane="best" from="141179036#1" to="-38563903#0" type="bike_bicycle"/>
    <trip id="bike237" depart="461.11" departLane="best" from="141265297#2" to="584853748" type="bike_bicycle"/>
    <trip id="bike238" depart="463.05" departLane="best" from="23201600#2" to="333396490#2" type="bike_bicycle"/>
    <trip id="bike240" depart="466.94" departLane="best" from="-97662628#0" to="-119390895#13" type="bike_bicycle"/>
    <trip id="bike241" depart="468.89" departLane="best" from="-646042384#2" to="381525478" type="bike_bicycle"/>
    <trip id="bike242" depart="470.83" departLane="best" from="495218096" to="651665965#0" type="bike_bicycle"/>
    <trip id="bike243" depart="472.78" departLane="best" from="141263263" to="380395201#1" type="bike_bicycle"/>
    <trip id="bike245" depart="476.67" departLane="best" from="-34851340#0" to="-419279932#0" type="bike_bicycle"/>
    <trip id="bike246" depart="478.62" departLane="best" from="143586213#2" to="-143586280#1" type="bike_bicycle"/>
    <trip id="bike247" depart="480.56" departLane="best" departSpeed="max" from="-606439164" to="333396029#3" type="bike_bicycle"/>
    <trip id="bike248" depart="482.51" departLane="best" from="132032333" to="-333396030" type="bike_bicycle"/>
    <trip id="bike249" depart="484.45" departLane="best" departSpeed="max" from="163125200" to="-25501912#2" type="bike_bicycle"/>
    <trip id="bike250" depart="486.40" departLane="best" from="25503166#3" to="-141263264#0" type="bike_bicycle"/>
    <trip id="bike251" depart="488.34" departLane="best" from="119390895#4" to="23201600#2" type="bike_bicycle"/>
    <trip id="bike252" depart="490.29" departLane="best" from="-141137045#4" to="314158208#0" type="bike_bicycle"/>
    <trip id="bike253" depart="492.24" departLane="best" from="-243530829#2" to="164051000#4" type="bike_bicycle"/>
    <trip id="bike254" depart="494.18" departLane="best" departSpeed="max" from="-151163915#1" to="139785377#3" type="bike_bicycle"/>
    <trip id="bike255" depart="496.13" departLane="best" departSpeed="max" from="-335355018#1" to="-665684613#0" type="bike_bicycle"/>
    <trip id="bike256" depart="498.07" departLane="best" from="381525476#4" to="139785377#3" type="bike_bicycle"/>
    <trip id="bike257" depart="500.02" departLane="best" from="378906222#20" to="464431267#12" type="bike_bicycle"/>
    <trip id="bike258" depart="501.96" departLane="best" from="-42048399#0" to="-188476880#0" type="bike_bicycle"/>
    <trip id="bike259" depart="503.91" departLane="best" from="-129273989" to="220387889#1" type="bike_bicycle"/>
    <trip id="bike260" depart="505.86" departLane="best" departSpeed="max" from="9897177" to="102693254#1" type="bike_bicycle"/>
    <trip id="bike262" depart="509.75" departLane="best" from="30996536#0" to="381525479#1" type="bike_bicycle"/>
    <trip id="bike264" depart="513.64" departLane="best" departSpeed="max" from="-129806244" to="-32752621" type="bike_bicycle"/>
    <trip id="bike265" depart="515.58" departLane="best" from="-23197390#12" to="331478129#0" type="bike_bicycle"/>
    <trip id="bike266" depart="517.53" departLane="best" departSpeed="max" from="22774169#0" to="-407197807#3" type="bike_bicycle"/>
    <trip id="bike267" depart="519.47" departLane="best" from="333396041#0" to="40286866" type="bike_bicycle"/>
    <trip id="bike268" depart="521.42" departLane="best" from="-311903943" to="26348384#3" type="bike_bicycle"/>
    <trip id="bike269" depart="523.37" departLane="best" departSpeed="max" from="378906222#0" to="-243530826" type="bike_bicycle"/>
    <trip id="bike270" depart="525.31" departLane="best" from="45846095#3" to="659348611#1" type="bike_bicycle"/>
    <trip id="bike271" depart="527.26" departLane="best" from="-190601538" to="-141261874#0" type="bike_bicycle"/>
    <trip id="bike272" depart="529.20" departLane="best" from="-521063075" to="333393248#3" type="bike_bicycle"/>
    <trip id="bike273" depart="531.15" departLane="best" from="654708414" to="141809043#4" type="bike_bicycle"/>
    <trip id="bike274" depart="533.09" departLane="best" from="333396491" to="-174302041#3" type="bike_bicycle"/>
    <trip id="bike275" depart="535.04" departLane="best" from="333393245#1" to="30533027" type="bike_bicycle"/>
    <trip id="bike276" depart="536.98" departLane="best" departSpeed="max" from="-188476880#3" to="407193795#1" type="bike_bicycle"/>
    <trip id="bike277" depart="538.93" departLane="best" from="488642458" to="25503166#6" type="bike_bicycle"/>
    <trip id="bike278" depart="540.88" departLane="best" from="-228186366#1" to="8435003#1" type="bike_bicycle"/>
    <trip id="bike279" depart="542.82" departLane="best" from="407197807#2" to="102693228" type="bike_bicycle"/>
    <trip id="bike280" depart="544.77" departLane="best" from="142944290#0" to="123342665#1" type="bike_bicycle"/>
    <trip id="bike283" depart="550.60" departLane="best" from="-190465779#2" to="656328340" type="bike_bicycle"/>
    <trip id="bike284" depart="552.55" departLane="best" from="26949512#1" to="463057029" type="bike_bicycle"/>
    <trip id="bike285" depart="554.50" departLane="best" from="333396059#2" to="153995180#2" type="bike_bicycle"/>
    <trip id="bike286" depart="556.44" departLane="best" from="348251623#0" to="659348612#0" type="bike_bicycle"/>
    <trip id="bike287" depart="558.39" departLane="best" departSpeed="max" from="-45729834#2" to="454527872#3" type="bike_bicycle"/>
    <trip id="bike288" depart="560.33" departLane="best" from="190581793#1" to="181361656#2" type="bike_bicycle"/>
    <trip id="bike289" depart="562.28" departLane="best" from="143586213#1" to="36268341#1" type="bike_bicycle"/>
    <trip id="bike290" depart="564.22" departLane="best" from="-454527873#1" to="4928824" type="bike_bicycle"/>
    <trip id="bike291" depart="566.17" departLane="best" from="463057029" to="-190465817#4" type="bike_bicycle"/>
    <trip id="bike292" depart="568.11" departLane="best" from="517998601" to="-46239724" type="bike_bicycle"/>
    <trip id="bike293" depart="570.06" departLane="best" from="161905132" to="26623947#2" type="bike_bicycle"/>