<?xml version="1.0" encoding="UTF-8"?>

<!-- generated on Wed Feb  6 15:52:32 2019 by Eclipse SUMO duarouter Version 1.1.0
<configuration xmlns:xsi="http://www.w3.org/2001/XMLSchema-instance" xsi:noNamespaceSchemaLocation="http://sumo.dlr.de/xsd/duarouterConfiguration.xsd">

    <input>
        <net-file value="/usr/local/Cellar/sumo/1.1.0/share/sumo/tools/2019-02-06-15-51-49/osm.net.xml"/>
        <route-files value="/usr/local/Cellar/sumo/1.1.0/share/sumo/tools/2019-02-06-15-51-49/osm.motorcycle.trips.xml"/>
    </input>

    <output>
        <output-file value="/usr/local/Cellar/sumo/1.1.0/share/sumo/tools/2019-02-06-15-51-49/osm.motorcycle.rou.xml"/>
        <alternatives-output value="/usr/local/Cellar/sumo/1.1.0/share/sumo/tools/2019-02-06-15-51-49/osm.motorcycle.rou.alt.xml"/>
    </output>

    <time>
        <begin value="0"/>
        <end value="3600.0"/>
    </time>

    <report>
        <no-warnings value="true"/>
        <ignore-errors value="true"/>
        <no-step-log value="true"/>
    </report>

</configuration>
-->

<routes xmlns:xsi="http://www.w3.org/2001/XMLSchema-instance" xsi:noNamespaceSchemaLocation="http://sumo.dlr.de/xsd/routes_file.xsd">
    <vType id="moto_motorcycle" vClass="motorcycle"/>
    <vehicle id="moto0" type="moto_motorcycle" depart="0.00" departLane="best">
        <route edges="-141179035#6 -141179035#5 -141179035#4 -141179035#3 -141179035#2 -141179035#1 -141179035#0 144870968#6 144870968#7 144870968#8 144870968#9 144870968#10 144870968#11 53436020 4928828#1 132032333 194028632 40288819 40288842#1 8505182 333902146 190601549 333902153 192029053 153147529#1 377833913#1 144871320#0 -640522476 161413804 576410787 431576782 451120809#2 451120809#3 463057277 584853313#1 368267186#0 368267186#1 161303910 246109025#1 444316122#0 -204552608#1 -204552608#0 446704734#1 -446704734#2"/>
    </vehicle>
    <vehicle id="moto1" type="moto_motorcycle" depart="4.12" departLane="best">
        <route edges="-463057022#2 463057022#2 463057022#3 463057022#4 460787688#1 460787688#2 460787688#3 460787688#4 460787688#5 460787688#6 654049725 543059990#0 -576410785 -576410787 -161413804 -188791147 -188791146#2 -188791146#1 -188791146#0 -25407493#1 -25407493#0 151157096#0 26949920 5009104#1 30372486 330344155 190601547 216122812#0 23201600#0 23201600#1 23201600#2 23201600#3 23201600#4"/>
    </vehicle>
    <vehicle id="moto2" type="moto_motorcycle" depart="8.24" departLane="best" departSpeed="max">
        <route edges="458117703 607492167 -446704734#2 -204552620 204552608#1 444316122#1 -576410785 -576410787 -161413804 640522476 38781032 190586232 190586255 645338237 8508652 645338235 188822506#0 188822506#1 645338233 235536382 315771482 645338239 22761554 -5009103#1 5009103#1 22761528 22761543#0 22761543#1 315771480#0"/>
    </vehicle>
    <vehicle id="moto3" type="moto_motorcycle" depart="12.35" departLane="best">
        <route edges="-190465817#6 190465817#6 412020085 30533027 333891065#0 333891065#1 333891065#3 30616382 189307628#0 -333890926 -21594233#5 -21594233#4"/>
    </vehicle>
    <vehicle id="moto4" type="moto_motorcycle" depart="16.47" departLane="best">
        <route edges="48344707#2 152813966 25444569#0 60578532#1 554713069 60578531#1 -554713067 -152176404#1 -46239724 -450274067 -23138735#0 142944424 188015327#0 43145614#0 143586195#0 143586195#1 143586318#0 143586186#0 143586186#1 24282865#0"/>
    </vehicle>
    <vehicle id="moto5" type="moto_motorcycle" depart="20.59" departLane="best">
        <route edges="463057022#0 -463057022#0 463057021 463057026 463057027#1 -307541272#2 -307541272#1 606439155 314405033#0 314405033#1 606439158 220387889#0 220387889#1 525949274 220387887#0 220387887#1 220387887#2 220387887#5 220387887#6 141137046#1 141137046#3 141137047#0 141137047#2 141137047#3 -152813983 20297117 355309979 448979126 654708414 38563905 25197931#0"/>
    </vehicle>
    <vehicle id="moto6" type="moto_motorcycle" depart="24.71" departLane="best">
        <route edges="25469034 190465798#0 190465787 190465797#0 190465797#1 190465785#0 146482573#0 146482573#2 146482573#3 146482573#4 146482573#5 3042238#0 3042238#1 3042238#2 45748887#0 45748887#1 21594797#0 21594797#1 143586308#1 143586308#2 143586280#0 143586280#1 143586280#2 143586280#3"/>
    </vehicle>
    <vehicle id="moto7" type="moto_motorcycle" depart="28.83" departLane="best">
        <route edges="143586213#1 143586213#2 143586213#3 179056989 42772469#1 181361656#0 181361656#2 181361656#3 142944253#2 142944283 142944421#0 142944421#1 188015326 23138735#0 450274067 46239724 152176404#1 554713067 152176400#2 554713068#0 60578547#1 604905863#0 26949512#1 123342665#1 123342665#3 123342665#4 208440383 244270739#0 244270739#1 244270739#2 244270739#3 562191406#0 307541272#1 307541272#2 463057029 220387891#0 220387891#1 463057018 463057019#1 463057020 -463057020"/>
    </vehicle>
    <vehicle id="moto8" type="moto_motorcycle" depart="32.95" departLane="best" departSpeed="max">
        <route edges="-656299984#1 377833913#1 26949916 190586232 190586255 645338237 8508652 645338235 645338236#0 645338236#1 645338229 460573525 627882342"/>
    </vehicle>
    <vehicle id="moto9" type="moto_motorcycle" depart="37.06" departLane="best">
        <route edges="-333902145#0 -8505170 333902146"/>
    </vehicle>
    <vehicle id="moto10" type="moto_motorcycle" depart="41.18" departLane="best">
        <route edges="-190465817#3 190465817#3 190465817#4 190465817#5 190465817#6 412020085 30533027 333891065#0 333891065#1 333891065#3 30616382 189307628#0 40287739#1 189307622 189307625 30412261 -25245659 -143586355#6 -143586355#5 -143586355#4 -143586355#3 -143586355#2"/>
    </vehicle>
    <vehicle id="moto11" type="moto_motorcycle" depart="45.30" departLane="best" departSpeed="max">
        <route edges="-656299984#1 377833913#1 26949916 190586232 190586255 645338237 8508652 645338235 645338236#0 645338236#1 645338229 460573525 518001971 370610341 206628174#0 206628174#1 25501955#0 25501955#1 370610344 370610338 517998602 -469768614 -25503166#6 -25503166#5 -25503166#4 -25503166#3 25503166#3"/>
    </vehicle>
    <vehicle id="moto12" type="moto_motorcycle" depart="49.42" departLane="best">
        <route edges="-22701043#2 22701043#2 22701043#3 -22700416#1 -22700416#0 23165590#0 23165590#1 228186366#0 228186366#1 228186366#2 43145613#0 43145613#1 43145613#2 184627082#1"/>
    </vehicle>
    <vehicle id="moto13" type="moto_motorcycle" depart="53.54" departLane="best">
        <route edges="5823609 25502942#0 25502942#1 25502942#2 469768614 480045336 517998600 460573535#1 460573536 370610341 400216393#0 400216393#1 516884625 516884626 516884623 23505459 31028439 516884620 -516892195 516892195 4272708 516884618#0 516884618#1"/>
    </vehicle>
    <vehicle id="moto14" type="moto_motorcycle" depart="57.65" departLane="best">
        <route edges="23774300#0 146482573#0 146482573#2 146482573#3 146482573#4 146482573#5 3042238#0 3042238#1 3042238#2 -3042236#6"/>
    </vehicle>
    <vehicle id="moto15" type="moto_motorcycle" depart="61.77" departLane="best" departSpeed="max">
        <route edges="-190465775#1 -190465775#0 -190465779#2 -190465779#1 -190465779#0 190465772 190465787 190465797#0 190465797#1"/>
    </vehicle>
    <vehicle id="moto16" type="moto_motorcycle" depart="65.89" departLane="best">
        <route edges="40150503#2 -40150503#2 -40150503#1 -141263264#1 -141263264#0 24996349#0 24996349#1 24996349#2 24996349#3 24996349#4 -24996349#4"/>
    </vehicle>
    <vehicle id="moto17" type="moto_motorcycle" depart="70.01" departLane="best">
        <route edges="15910821 30239026 31028439 516884620 -516892195 -32752621 -129273989 -351700501 161303910 246109025#1 444316122#0 444316122#1 -543059990#0 -654049725 -541386221#1 -541386221#0 -311903943 -431576781#1 -431576781#0 -431576780 -463057020 232103860#0 463057022#0 463057022#1 463057022#2 -463057022#2"/>
    </vehicle>
    <vehicle id="moto18" type="moto_motorcycle" depart="74.13" departLane="best">
        <route edges="216122812#0 4928828#1 132032333 194028632 40288819 40288842#1 8505182 333902146 190601549 333902153"/>
    </vehicle>
    <vehicle id="moto19" type="moto_motorcycle" depart="78.24" departLane="best">
        <route edges="141263264#1 26773464#1 26773464#2 26773464#4 23201600#0 23201600#1 23201600#2 23201600#3"/>
    </vehicle>
    <vehicle id="moto20" type="moto_motorcycle" depart="82.36" departLane="best">
        <route edges="-5007495#0 5007495#0 5007495#1 -5007495#3 -5007495#2"/>
    </vehicle>
    <vehicle id="moto21" type="moto_motorcycle" depart="86.48" departLane="best">
        <route edges="-174302041#3 -174302041#2 -174302041#1 -174302041#0 471569882 516892197 34330328#0 34330328#1 516884633#0 516884633#2 516884639#0 22774089 174302038 516884628 516884629 370610345#0 370610345#1 370610344 370610338 517998602 -469768614 25501984"/>
    </vehicle>
    <vehicle id="moto22" type="moto_motorcycle" depart="90.60" departLane="best" departSpeed="max">
        <route edges="495246282 142944253#0 142944253#1 142944253#2 142944552 45519024 23165593#0 23165593#1 23165593#2 19644867#0 19644867#1 19644867#2 26623947#1 26623947#2 -26623996#1 -26623996#0 -18761926#1 -18761926#0"/>
    </vehicle>
    <vehicle id="moto23" type="moto_motorcycle" depart="94.72" departLane="best">
        <route edges="-46102577#0 46102602 143586213#1 143586213#2 143586213#3 179056989 42772469#1 181361656#0 181361656#2 181361656#3 142944253#2 142944283 142944421#0 142944421#1 188015326 23138735#0 450274067 46239724 152176404#1 23052411#0 23052411#1 60578527 121708051#0 121708051#1 121708051#3 48344707#2 152813966 25444569#0 395272650#1 -25400603"/>
    </vehicle>
    <vehicle id="moto24" type="moto_motorcycle" depart="98.84" departLane="best">
        <route edges="188822506#0 188822506#1 645338233 235536382 315771482 645338239 151163917#1 3127157 190601551 448984427 151157099 38837206 25407493#0 25407493#1 188791146#0 188791146#1 188791146#2 188791147 161413804 576410787 431576782 -543059990#0 -654049725 -541386221#1 -541386221#0 -311903943 -431576781#1 -431576781#0 431576781#0"/>
    </vehicle>
    <vehicle id="moto25" type="moto_motorcycle" depart="102.95" departLane="best">
        <route edges="458320759 458542855#2 458542854#0 458542854#1 458542844#0 458542844#1 44530697 215080599 656676189 -8320141#1 -8320141#0 -38563899 -38563900 -152813965#1 111747607#1 111747607#2 111747607#3 111747607#4 554706400#0 247945422#1 152814002#0 152814002#2 244270739#0 244270739#1 244270739#2 244270739#3 562191406#0 -419279932#1 -419279932#0"/>
    </vehicle>
    <vehicle id="moto26" type="moto_motorcycle" depart="107.07" departLane="best">
        <route edges="-204552620 204552608#1 444316122#1 451120809#2 451120809#3 463057277 584853313#1 368267186#0 368267186#1 351700501 129273989 32752621 516892195 4272708 516884618#0 516884618#1 516884619 48344573#0 48344573#1 -516884626 -516884625 180326068#0"/>
    </vehicle>
    <vehicle id="moto28" type="moto_motorcycle" depart="115.31" departLane="best">
        <route edges="-40150576#1 40150576#1 23201600#11 23201600#12 144870968#0 144870968#6 144870968#7 144870968#8 144870968#9 144870968#10 144870968#11 53436020 4928828#1 646033701 216122814#0 216122814#1 190465810 330344157 185992233 264963988#0 572415630 53436021 30451267 25469048#1 631613582 631613581 625856813#0 30616382 189307628#0 36268330#1 188228382"/>
    </vehicle>
    <vehicle id="moto29" type="moto_motorcycle" depart="119.43" departLane="best">
        <route edges="157109027#0 157109027#2 30412260 23190865 333890922 604905865#0 604905865#1 21591353#0 21591353#1 25197931#0 25197931#1 25197931#2 152813962 38563902#1 448979127#0 448979127#1 355309978 38563904 -141137047#3 -141137047#2 -141137047#0 -141137046#3 -141137046#2 654708419 239479777 239479767#0 48344707#1 48344707#2 152813966 25444569#0 111747607#1 111747607#2"/>
    </vehicle>
    <vehicle id="moto30" type="moto_motorcycle" depart="123.54" departLane="best">
        <route edges="-554713074 554713074 554713073 381540198#0 193847534#1 554713072 83075275#0 83075275#2 60578532#1"/>
    </vehicle>
    <vehicle id="moto31" type="moto_motorcycle" depart="127.66" departLane="best">
        <route edges="220387887#5 220387887#6 654708419 239479777 239479767#0 48344707#1 48344707#2 152813966 25444569#0 152813965#0 152813986 24019672 152813977#1 8320141#1 606439164 656676190 -215080599 -44530697 -458542844#1 -458542844#0 -458542845#1 -606439134 -659691578 -142944231 -606439133 22911254#0 22911254#1 -146276277#2"/>
    </vehicle>
    <vehicle id="moto32" type="moto_motorcycle" depart="131.78" departLane="best" departSpeed="max">
        <route edges="9897177 121708075 152176405#0 152176405#1 60578527 121708051#0 121708051#1 121708051#3 48344707#2 152813966 25444569#0 111747607#1 111747607#2 111747607#3 111747607#4 554706400#0 247945422#1 152814002#0 152814002#2 244270739#0 244270739#1 244270739#2 244270739#3 562191406#0 233287122#0 233287122#1 463929523#0"/>
    </vehicle>
    <vehicle id="moto33" type="moto_motorcycle" depart="135.90" departLane="best">
        <route edges="485685534#1 3127157 190601551 448984427 25407366 26949920 5009104#1 5009104#2 5009104#4 190465756 190465770#0 26961514 185992233 264963988#0 572415630 26961484 8484620 53721854 190465815 190601545 8505182 8505170 333902145#0 333902145#1 333902145#2 333902145#3 333902145#4 333878195 -333878195"/>
    </vehicle>
    <vehicle id="moto34" type="moto_motorcycle" depart="140.02" departLane="best">
        <route edges="23201600#10 23201600#11 23201600#12 144870968#0 144870968#6 144870968#7 144870968#8 144870968#9 144870968#10 144870968#11 53436020 4928828#1 646033701 216122814#0 216122814#1 190465810 330344157 185992233 264963988#0 572415630 53436021 30451267 25469048#1 631613582 631613581 625856813#0 179060068 631613577 631613576 625856812 333891064 30533027"/>
    </vehicle>
    <vehicle id="moto35" type="moto_motorcycle" depart="144.14" departLane="best" departSpeed="max">
        <route edges="-5113251#1 -5113251#0 40154352#2 40154352#3 23774300#0 30996866#0 190465793 25469034 190465798#0 190465798#2 190465795 24717289 190465763 26961484 8484620 53721854 190465815 190601545 -40288842#1 -190601538 -194028632 194028631 194028630 216122812#0 -53436020 -646033698#1 -646033699 -23201239#5 -23201239#4 -23201239#3 -23201239#2"/>
    </vehicle>
    <vehicle id="moto36" type="moto_motorcycle" depart="148.25" departLane="best">
        <route edges="517998600 460573535#1 460573536 370610341 400216393#0 400216393#1 516884625 516884626 516884623 23505459 31028439 516884620 -516892195 -32752621 -129273989 -351700501 161303910 246109025#1 444316122#0 -204552608#1 -204552608#0 446704734#1 -607492167"/>
    </vehicle>
    <vehicle id="moto37" type="moto_motorcycle" depart="152.37" departLane="best" departSpeed="max">
        <route edges="-45729834#2 -22911254#1 -22911254#0 606439133 142944231 659691578 606439134 458542845#0 24438744#1 24438744#2 24438744#3 184627082#0 184627082#1 142944558 188015329 188015330#1 142944258 188015322#0 188015318#0 181361656#0 181361656#2 181361656#3 142944290#0 142944290#1 142944290#2 188015317 142944244#1 142944244#2 142944244#3 142944244#4 142944244#5 142944244#6 142944244#7 331478129#0 331478129#1 331478129#2"/>
    </vehicle>
    <vehicle id="moto38" type="moto_motorcycle" depart="156.49" departLane="best">
        <route edges="26949512#1 141137045#1 141137045#3"/>
    </vehicle>
    <vehicle id="moto39" type="moto_motorcycle" depart="160.61" departLane="best">
        <route edges="9783228 -25400480 -9780341#1 -9780341#0 -38563899 9780340"/>
    </vehicle>
    <vehicle id="moto40" type="moto_motorcycle" depart="164.73" departLane="best">
        <route edges="-18570957#0 18570957#0 18570957#1 -174302041#2 -174302041#1 -174302041#0 471569882 516892197 34330328#0 34330328#1 516884633#0 516884633#2 516884639#0 22774089 174302038 516884628 516884629 370610345#0 370610345#1 370610344 370610338 517998602 -469768614"/>
    </vehicle>
    <vehicle id="moto42" type="moto_motorcycle" depart="172.96" departLane="best">
        <route edges="516884639#0 22774089 174302038 -174302038 516884631 174302039#0 516884641#0 471566756#0 18570739#0 516884640"/>
    </vehicle>
    <vehicle id="moto43" type="moto_motorcycle" depart="177.08" departLane="best">
        <route edges="143586206 23165591#0 23165589#0 23165589#1 -228186366#2 -228186366#1 -228186366#0 32958574 656676190 656676189 -8320141#1 -8320141#0 -38563899 -38563900 -152813965#1 395272650#1 9702432#0 -381540198#1 -554713073 -554713074 83075269#2 -307556942"/>
    </vehicle>
    <vehicle id="moto44" type="moto_motorcycle" depart="181.20" departLane="best">
        <route edges="264963988#0 572415630 53436021 30451267 25469048#1 631613582 631613581"/>
    </vehicle>
    <vehicle id="moto45" type="moto_motorcycle" depart="185.32" departLane="best" departSpeed="max">
        <route edges="-8298127#1 -8298127#0 -22700416#1 -22700416#0 23165590#0 23165590#1 32958574 656676190 656676189 -8320141#1 -8320141#0 -38563899 -38563900 -152813965#1 111747607#1 111747607#2 111747607#3 111747607#4 554706400#0 247945422#1 152814002#0 152814002#2 244270739#0"/>
    </vehicle>
    <vehicle id="moto46" type="moto_motorcycle" depart="189.43" departLane="best">
        <route edges="330344155 190601547 216122812#0 4928828#1 132032333 194028632 40288819 40288842#1 8505182 333902146 190601549 333902153 192029053 153147529#1 377833913#1 144871320#0 -640522476 161413804 576410787 431576782 -543059990#0 -654049725 -541386221#1 -541386221#0 -311903943 -431576781#1 -431576781#0 -431576780 -463057020 232103860#0 463057022#0 463057022#1 463057022#2 463057022#3 463057022#4 -460787688#0"/>
    </vehicle>
    <vehicle id="moto47" type="moto_motorcycle" depart="193.55" departLane="best">
        <route edges="25478265 -25400603 -10304101 -25400473#1 -25400480 -9780341#1 -9780341#0 152813977#1 8320141#1 -8320141#1"/>
    </vehicle>
    <vehicle id="moto48" type="moto_motorcycle" depart="197.67" departLane="best">
        <route edges="34330328#1 516884633#0 516884633#2 516884639#0 22774089 174302038 516884628 516884629 370610345#0 370610345#1 370610344 460573535#0 460573535#1 517031505 609032935 627882342 627882349 517031506#0 645338232#0 645338232#1 645338233 235536382 315771482 645338239 22761554 -5009103#1 5009103#1 22761528 22761543#0"/>
    </vehicle>
    <vehicle id="moto49" type="moto_motorcycle" depart="201.79" departLane="best">
        <route edges="554713069 48344707#1 48344707#2 152813966 25444569#0 152813965#0 152813986 24019672 152813977#1 8320141#1 23165590#0 -23165590#0 22700416#0 22700416#1"/>
    </vehicle>
    <vehicle id="moto50" type="moto_motorcycle" depart="205.91" departLane="best">
        <route edges="463057277 584853313#1 368267186#0 368267186#1 161303910 246109025#1 444316122#0 444316122#1 -576410785 -576410787 -161413804 -188791147 -188791146#2 -188791146#1 -188791146#0 -25407493#1 -25407493#0 151157096#0 26949920 5009104#1 30372486 330344155 190601547 216122812#0 -53436020 -646033698#1 -646033699 -23201239#5 -23201239#4 23201239#4"/>
    </vehicle>
    <vehicle id="moto51" type="moto_motorcycle" depart="210.03" departLane="best">
        <route edges="541386221#1 654049725 -654049725 -541386221#1 -541386221#0 -311903943 -431576781#1 -431576781#0 -431576780 -463057020 232103860#0 463057022#0 -463057022#0"/>
    </vehicle>
    <vehicle id="moto52" type="moto_motorcycle" depart="214.14" departLane="best">
        <route edges="-554713073 -554713074 83075269#2 307556944#0 307556944#1 247945422#1 152814002#0 152814002#2 210979056 122663598#0 122663598#1 220387887#0 220387887#1 220387887#2 217558040 -217558040"/>
    </vehicle>
    <vehicle id="moto53" type="moto_motorcycle" depart="218.26" departLane="best">
        <route edges="188228387#0 179060064#0 179060064#1 188228392 190465753#0 26961484 8484620 53721854 190465815 190601545 -40288842#1 -190601538 -194028632 194028631 194028630 216122812#0 23201600#0 23201600#1 23201600#2 23201600#3 23201600#4 23201600#5 23201600#6 23201600#7 23201600#8 23201600#9 23201600#10 23201600#11 23201600#12 144870968#0 141179035#0"/>
    </vehicle>
    <vehicle id="moto55" type="moto_motorcycle" depart="226.50" departLane="best">
        <route edges="654708414 25197931#1 25197931#2 152813962 38563902#1 448979127#0 448979127#1 355309978 38563904 -141137047#3 -141137047#2 -141137047#0 -141137046#3 -141137046#2 654708419 239479777 239479767#0 48344707#1 48344707#2 152813966 25444569#0 152813965#0 152813986 24019672 -38563899"/>
    </vehicle>
    <vehicle id="moto56" type="moto_motorcycle" depart="230.62" departLane="best">
        <route edges="-22700416#0 23165590#0 23165590#1 32958574 656676190 -215080599 -44530697 -458542844#1 -458542844#0 24438744#1 24438744#2 24438744#3 184627082#0"/>
    </vehicle>
    <vehicle id="moto57" type="moto_motorcycle" depart="234.73" departLane="best">
        <route edges="233756781 106778699 157109027#0 157109027#2 30412260 23190865 333890922 604905865#0 604905865#1 21591353#0 21591353#1 25197931#0 25197931#1 25197931#2 152813962 38563902#1 448979127#0 448979127#1 355309978 38563904 -141137047#3 -141137047#2 -141137047#0 -141137046#3 -141137046#2 654708419 239479777 239479767#0 48344707#1 48344707#2 152813966 25444569#0 395272650#1 9702432#0 193847534#1"/>
    </vehicle>
    <vehicle id="moto58" type="moto_motorcycle" depart="238.85" departLane="best">
        <route edges="143586350#1 46102602 143586213#1 143586213#2 143586213#3 179056989 42772469#1 181361656#0 181361656#2 181361656#3 142944290#0 142944290#1 142944290#2 188015317 142944244#1 142944244#2 142944244#3 142944244#4 142944244#5 142944244#6 142944244#7 407196118 142944425#0 142944425#1 23179704 23165593#2 19644867#0 19644867#1 19644867#2 19645923 23179673#1"/>
    </vehicle>
    <vehicle id="moto59" type="moto_motorcycle" depart="242.97" departLane="best">
        <route edges="-606439133 606439133 142944231 659691578 606439134 458542845#0 24438744#1 24438744#2 24438744#3 184627082#0 184627082#1 142944558 188015329 188015330#1 142944258 188015322#0 188015318#0 181361656#0 181361656#2 181361656#3 142944290#0 142944290#1 142944290#2 188015317 142944244#1 142944244#2 142944244#3 142944244#4 142944244#5 142944244#6 142944244#7 407196118 331478122#0"/>
    </vehicle>
    <vehicle id="moto60" type="moto_motorcycle" depart="247.09" departLane="best">
        <route edges="-121708075 121708075 152176405#0 9781305 9781304 10305557 24019672 152813977#1 8320141#1 606439164 656676190 -215080599 -44530697 -458542844#1 -458542844#0 -458542845#1 -606439134 606439134"/>
    </vehicle>
    <vehicle id="moto61" type="moto_motorcycle" depart="251.21" departLane="best" departSpeed="max">
        <route edges="21595198 3042321 190417269#0 -190417294#0 -131675656#2 -131675656#1 -131675656#0 425097090 3042239#1 -3042236#6 -3042236#5 -3042236#3 -3042236#2 -3042236#1 21594233#4 21594233#5 333890926 40287739#1 189307622 189307625 30412261 23159360#1 23159360#3 23159360#4 333507774#0"/>
    </vehicle>
    <vehicle id="moto62" type="moto_motorcycle" depart="255.33" departLane="best">
        <route edges="264963989 264963988#0 572415630 26961484 8484620 53721854 190465815 190601545 -40288842#1 -190601538 -194028632 194028631 194028630 216122812#0 -53436020 141265297#1 141265297#2 141265297#4 142704128#0"/>
    </vehicle>
    <vehicle id="moto63" type="moto_motorcycle" depart="259.44" departLane="best">
        <route edges="33041313#1 -33041313#1 -33041313#0 188228394#3 188228394#5 188228394#8 188228391 188228383 143586213#1 143586213#2 143586213#3 179056989 42772469#1 181361656#0 181361656#2 181361656#3 142944253#2 142944283 142944421#0 142944421#1 188015326 23138735#0 450274067 46239724 152176404#1 554713067 152176400#2 554713068#0 60578547#1 604905863#0 141137043#1 141137043#2 141137043#3 141137043#4 -141137045#4 141137045#4"/>
    </vehicle>
    <vehicle id="moto64" type="moto_motorcycle" depart="263.56" departLane="best">
        <route edges="146482573#3 146482573#4 146482573#5 30533027 333891065#0 333891065#1 333891065#3 179060064#0 179060064#1 188228392 190465753#0 26961484 8484620 53721854 190465815 190601545 -40288842#1 -190601538 -194028632 194028631 194028630 216122812#0 23201600#0 23201600#1 23201600#2 23201600#3 139785375 139785377#0 139785377#2 139785377#3"/>
    </vehicle>
    <vehicle id="moto65" type="moto_motorcycle" depart="267.68" departLane="best">
        <route edges="123342665#3 123342665#4 208440384 525949279 606439152 161303905#0 463670811#1 463670811#2 606439138 606439135#0 606439135#1 554713070 554706401#0 554706401#1 152813965#0 152813986 24019672 152813977#1 8320141#1 23165590#0 -23165590#0 22700416#0 22700416#1 -22701043#3 -22701043#2 22701043#2"/>
    </vehicle>
    <vehicle id="moto66" type="moto_motorcycle" depart="271.80" departLane="best">
        <route edges="-10304101 10304101 25478265 9702432#0 -381540198#1 -554713073 -554713074 83075269#2 307556944#0 307556944#1 247945422#1 152814002#0 152814002#2 210979056 122663598#0 122663598#1"/>
    </vehicle>
    <vehicle id="moto67" type="moto_motorcycle" depart="275.92" departLane="best">
        <route edges="25503166#3 25503166#4 25503166#5 25503166#6 469768614 480045336 517998600 460573535#1 517031505 609032935 627882342 627882349 517031506#0 645338232#0 645338232#1 645338233 235536382 315771482 645338239 151163917#1 3127157 190601551 448984427 151157099 38837206 25407493#0 25407493#1 188791146#0 188791146#1 188791146#2 188791147 640522476 38781032 190586232 190586255 645338237 8508652 645338235 188822506#0 188822506#1"/>
    </vehicle>
    <vehicle id="moto69" type="moto_motorcycle" depart="284.15" departLane="best">
        <route edges="26949920 5009104#1 5009104#2 5009104#4 190465756 190465770#0 26961514 185992233 264963988#0 572415630 26961484 178064081 192027797 190465759 21521128 192029053 153147529#1 377833913#1 26949916 190586232 190586255 645338237 8508652 645338235 645338236#0 645338236#1 645338229 460573525 518001971 370610341 400216393#0 400216393#1 516884625 -516884625"/>
    </vehicle>
    <vehicle id="moto70" type="moto_motorcycle" depart="288.27" departLane="best">
        <route edges="-53721850 -53436293 144870968#0 144870968#6 144870968#7 144870968#8 144870968#9 144870968#10 144870968#11 53436020 4928828#1 646033701 216122814#0 216122814#1 190465810 330344157 185992233 190465757 93762556#0 93762556#1 240515083 190465779#0 190465779#1 190465779#2 190465775#0 190465775#1"/>
    </vehicle>
    <vehicle id="moto71" type="moto_motorcycle" depart="292.39" departLane="best">
        <route edges="487411728#0 487411728#1 -307556942 27471775#0 27471775#1 188476880#0 188476880#1 -188476880#1"/>
    </vehicle>
    <vehicle id="moto72" type="moto_motorcycle" depart="296.51" departLane="best">
        <route edges="-348251627#1 -348251627#0 -348251623#0 -18570707 471566758 18570739#0 516884640 22774089 174302038 516884628 516884629 370610345#0 370610345#1 370610344 460573535#0 460573535#1 517031505 609032935 627882342 627882349 517031506#0 645338232#0 645338232#1 645338233 235536382 315771482 645338239 151163917#1 3127157 190601551 448984427 151157099 38837206 25407493#0 25407493#1 188791146#0 188791146#1 188791146#2 188791147 640522476 38781032 190586232 190586255 645338237 8508652 645338235 645338236#0"/>
    </vehicle>
    <vehicle id="moto73" type="moto_motorcycle" depart="300.62" departLane="best">
        <route edges="188015329 188015330#1 142944258 188015322#0 188015318#0 181361656#0 181361656#2 181361656#3 142944290#0 142944290#1 142944290#2 188015317 142944244#1 142944244#2 142944244#3 142944244#4 142944244#5 142944244#6 142944244#7 407196118 142944425#0 142944425#1 23179704 23165593#2 19644867#0 19644867#1 19644867#2 26623947#1 26623947#2 -26623996#1 -26623996#0 -18761926#1 -18761926#0 22911254#0 22911254#1 45729831#0"/>
    </vehicle>
    <vehicle id="moto74" type="moto_motorcycle" depart="304.74" departLane="best">
        <route edges="189307625 30412261 23159360#1 23159360#3 23159360#4 333507774#0 333507774#1 143586217 188228391 188228383 143586213#1 143586213#2 143586213#3 179056989 42772469#1 181361656#0 181361656#2 142944295#2 188015324#0 143586195#0 143586195#1 143586318#0 637815817#0 637815817#2 637815817#3 637815817#4 637815817#6 637815817#7 30412260 23190865 53721857 188228388 188228389 188228381#0 188228390 36268330#0 -333890926 -21594233#5 -21594233#4 3042236#1 3042236#2 44529404 -82410227#0"/>
    </vehicle>
    <vehicle id="moto75" type="moto_motorcycle" depart="308.86" departLane="best">
        <route edges="-541386221#1 541386221#1 654049725 543059990#0 451120809#2 451120809#3 463057277 584853313#1 368267186#0 368267186#1 351700501 129273989 32752621 516892195 4272708 516884618#0 516884618#1 516884619 48344573#0 48344573#1 -516884626 -516884625 180326068#0 25501955#0 25501955#1 370610344 370610338 517998602 -469768614 25501984 5823480 5823609 25502942#0"/>
    </vehicle>
    <vehicle id="moto76" type="moto_motorcycle" depart="312.98" departLane="best">
        <route edges="-188476880#0 -27471775#1 -27471775#0 307556942 462410900#3 554713074 554713073 381540198#0 193847534#1 554713072 83075275#0 83075275#2 60578532#1 554713069 60578531#1 -554713067 -152176404#1 152176404#1 23052411#0 23052411#1 -25561006 -152176405#0 -121708075 121708075"/>
    </vehicle>
    <vehicle id="moto77" type="moto_motorcycle" depart="317.10" departLane="best">
        <route edges="3127157 190601551 448984427 151157099 38837206 25407493#0 25407493#1 188791146#0 188791146#1 188791146#2 188791147 640522476 38781032 190586232 190586255 645338237 8508652 645338235 645338236#0 645338236#1 645338229 460573525 518001971 370610341 206628174#0 206628174#1 516884630 -516884629 -516884628 -174302038"/>
    </vehicle>
    <vehicle id="moto78" type="moto_motorcycle" depart="321.22" departLane="best" departSpeed="max">