<?xml version="1.0" encoding="UTF-8"?>

<!-- generated on Wed Feb  6 15:52:10 2019 by Eclipse SUMO duarouter Version 1.1.0
<configuration xmlns:xsi="http://www.w3.org/2001/XMLSchema-instance" xsi:noNamespaceSchemaLocation="http://sumo.dlr.de/xsd/duarouterConfiguration.xsd">

    <input>
        <net-file value="/usr/local/Cellar/sumo/1.1.0/share/sumo/tools/2019-02-06-15-51-49/osm.net.xml"/>
        <route-files value="/usr/local/Cellar/sumo/1.1.0/share/sumo/tools/2019-02-06-15-51-49/osm.bicycle.trips.xml"/>
    </input>

    <output>
        <output-file value="/usr/local/Cellar/sumo/1.1.0/share/sumo/tools/2019-02-06-15-51-49/osm.bicycle.rou.xml"/>
        <alternatives-output value="/usr/local/Cellar/sumo/1.1.0/share/sumo/tools/2019-02-06-15-51-49/osm.bicycle.rou.alt.xml"/>
    </output>

    <time>
        <begin value="0"/>
        <end value="3600.0"/>
    </time>

    <report>
        <no-warnings value="true"/>
        <ignore-errors value="true"/>
        <no-step-log value="true"/>
    </report>

</configuration>
-->

<routes xmlns:xsi="http://www.w3.org/2001/XMLSchema-instance" xsi:noNamespaceSchemaLocation="http://sumo.dlr.de/xsd/routes_file.xsd">
    <vType id="bike_bicycle" vClass="bicycle"/>
    <vehicle id="bike0" type="bike_bicycle" depart="0.00" departLane="best">
        <route edges="292815352#1 292815353 330344152 40288735#0 40288735#1 330344151 240518004 39544470#0 39544470#1 39544470#2 39544470#4 39544470#5 36268341#0 190465795 24717289 190465763 591214267 30996540 129701474 30996538#1 30996538#3 30996538#4 330344155 190601547 216122812#0 23201600#0 23201600#1 23201600#2 23201600#3 23201600#4 23201600#5 23201600#6 23201600#7 -78797050 141179035#0 141179035#1 141179035#2 141179035#3 141179035#4 141179035#5 141179035#6 141179035#7 141179037#0 141179037#1 -141179037#1"/>
    </vehicle>
    <vehicle id="bike1" type="bike_bicycle" depart="1.95" departLane="best">
        <route edges="-460787688#2 460787688#2 460787688#3 460787688#4 460787688#5 460787688#6 654049725 543059990#0 451120809#2 451120809#3 463057277 584853313#1 368267186#0 368267186#1 351700501 129273989 32752621 516892195 4272708 516884618#0 516884618#1 516884619 48344573#0 48344573#1 -516884626 -516884625 180326068#0 25501955#0 25501955#1 370610344 370610338 517998602 -469768614 -25503166#6 -25503166#5 -42048399#2 -42048399#1"/>
    </vehicle>
    <vehicle id="bike2" type="bike_bicycle" depart="3.89" departLane="best" departSpeed="max">
        <route edges="361916993 -361917002 -190465817#3 -190465817#2 -190465817#1 190465790#1 190465788#0 30996866#0 190465793 25469034 190465798#0 190465798#2 190465795 24717289 190465763 53436018#2 40288934#0 40288934#1 53721854 190465815 8505164 25505536#0 -25505536#0 -53721855 8505182 8505170 333902145#0 333902145#1 333902145#2 333902145#3 333902145#4 333878195 243530826 292815351#3 36268765 36268766#0 235528303 606450769 36268767 5823970 -645338244#1 -645338244#0 -153147535 460573525 518001971 370610341 206628174#0 206628174#1 516884630 -516884629 -516884628 -174302038 516884631 174302039#0 516884641#0 471566756#0 -471566758 -516884642 348251623#0 -333396024 333393239#0 333393239#1 333393245#2 333393247#2"/>
    </vehicle>
    <vehicle id="bike3" type="bike_bicycle" depart="5.84" departLane="best">
        <route edges="554706401#1 60578532#1 554713069 60578531#1 -554713067 -152176404#1 -46239724 -450274067 -23138735#0 142944424 188015327#0 43145614#0 143586195#0 143586195#1 143586318#0 637815817#0 637815817#2 637815817#3 637815817#4 637815817#6 637815817#7 30412260 23190865 53721857 188228388 188228389 188228381#0 188228397 119390900#1 188228398#1 188228382 188228387#0 179060068 631613577 631613576 625856812 333891064 412020090 -190465817#6 -190465817#5 -190465817#4"/>
    </vehicle>
    <vehicle id="bike4" type="bike_bicycle" depart="7.78" departLane="best">
        <route edges="141873960#0 -141873960#0 -152813983 20297117 355309979 448979126 654708414 38563905 -21591353#1 -21591353#0 -604905865#1 -604905865#0 -188690103 53721857 188228388 188228389 188228381#0 188228397 119390900#1 -333890926 -21594233#5 -21594233#4 3042236#1 3042236#2 3042236#3 3042236#5 3042236#6 45748887#0 45748887#1 21594797#0 21594797#1 143586308#1 143586308#2 143586280#0 143586280#1 143586280#2 143586280#3 -143586280#3"/>
    </vehicle>
    <vehicle id="bike5" type="bike_bicycle" depart="9.73" departLane="best" departSpeed="max">
        <route edges="-346987725 346987719#2 346987718#1 40154352#2 40154352#3 23774300#0 30996866#0 190465793 25469034 190465798#0 240515083 190465779#0 188810427#0 188810427#2"/>
    </vehicle>
    <vehicle id="bike7" type="bike_bicycle" depart="13.62" departLane="best">
        <route edges="307556942 307556944#0 307556944#1 247945422#1 152814002#0 152814002#2 244270739#0 244270739#1 244270739#2 244270739#3 562191406#0 307541272#1 307541272#2 463057029 220387891#0 220387891#1 463057018 463057022#0 463057022#1 463057022#2 463057022#3 463057022#4 460787688#1 460787688#2 460787688#3 460787688#4 460787688#5 460787688#6 654049725 543059990#0 451120809#2 451120809#3 463057277 584853313#1 368267186#0 368267186#1 351700501 129273989 32752621 516892195 4272708 516884618#0 516884618#1 516884619 516892199 34330328#0 34330328#1 516884633#0 516884633#2 516884641#0 471566756#0 -471566758 -516884642 348251623#0 -333396024 333393239#0 333393239#1 -333393245#1 333393244 333396044#1 333396044#2 333396044#4 -333396054#5 -333396054#4 -333396054#3 -333396054#1 -333396054#0 22774169#2"/>
    </vehicle>
    <vehicle id="bike8" type="bike_bicycle" depart="15.56" departLane="best">
        <route edges="-34851340#0 34851340#0 144870968#11 53436020 4928828#1 132032333 194028632 40288819 40288842#1 53721855 25505536#0 25505536#1 25505536#2 25505536#3 25505536#4 -25505523#1 -25505523#0 25610215#0 25610215#1 25610215#2 25610215#3 295931067#0 295931067#1 295931067#2 295931067#3 295931067#4 25610297 152813991#2 25197931#1 25197931#2"/>
    </vehicle>
    <vehicle id="bike9" type="bike_bicycle" depart="17.51" departLane="best">
        <route edges="448939460 -143586355#2 -143586355#1 -26348384#4 -26348384#3 -26348384#2 -26348384#1 -26348384#0 378906222#17 378906222#18 378906222#19 378906222#20 378906222#21 378906222#22 378906222#23 378906222#24 188228394#8 188228391 188228383 143586213#1 143586213#2 143586213#3 179056989 23156855#1 450274076 -42772471#4 -42772471#1 143586195#0 143586195#1 143586318#0 637815817#0 637815817#2 637815817#3 637815817#4 637815817#6 637815817#7 30412260 23190865 333891048#0 119390903#1 119390899 119390895#0 119390895#1 119390895#2 119390895#4 119390895#5 119390895#8 119390895#9 119390895#10 119390895#13 119390895#14 119390895#15 -119390895#15"/>
    </vehicle>
    <vehicle id="bike10" type="bike_bicycle" depart="19.46" departLane="best">
        <route edges="440252808#1 -345469504#1 -345469504#0 509204459#1 440252808#0 659348620 22761554 -5009103#1 -5009103#0 25503233#0 25503233#1 25503284 25503289 -30996536#0 -30372441 -30996540 -591214267 -39977162#1 -39977162#0 30373867 30451267 25469048#1 631613582 631613581 625856813#0 30616382 189307628#0 42772468 189307622 189307625 30412261 23159360#1 23159360#3 23159360#4 333507774#0"/>
    </vehicle>
    <vehicle id="bike11" type="bike_bicycle" depart="21.40" departLane="best">
        <route edges="-611783714#1 -26348384#1 -26348384#0 378906222#17 378906222#18 378906222#19 378906222#20 378906222#21 378906222#22 378906222#23 378906222#24 188228394#8 188228391 188228383 143586206 142944546#1 142944546#2 43145612#0 -32958569#0 32958564#6 32958564#7 -32958564#7"/>
    </vehicle>
    <vehicle id="bike12" type="bike_bicycle" depart="23.35" departLane="best">
        <route edges="653773415#3 -543059990#0 -654049725 -541386221#1 -541386221#0 -311903943 -431576781#1 -431576781#0 -431576780 -463057020 232103860#0 463057021 463057026 463057027#1 -307541272#2 -307541272#1 606439155 314405033#0 314405033#1 606439158 220387889#0 220387889#1 525949274 220387887#0 220387887#1 220387887#2 220387887#5 220387887#6 141137046#1 141137046#3 141137047#0 141137047#2 141137047#3 -152813983 20297117 355309979 448979126 654708414 38563905 -21591353#1 -21591353#0 -604905865#1 -604905865#0 -188690103 53721857 188228388 188228389 188228381#0 188228397 119390900#1 188228398#1 188228382 188228387#0 179060068 631613577 631613576 625856812 333891064 3042238#0 91904005 -91904005"/>
    </vehicle>
    <vehicle id="bike14" type="bike_bicycle" depart="27.24" departLane="best">
        <route edges="48344573#0 48344573#1 -516884626 -516884625 180326068#0 25501955#0 25501955#1 370610344 370610338 517998602 -469768614 509204459#1 440252808#0 659348620 5822870#0 5822870#1 385295530 -151157105#1 151157106 129380148#2 606450771 39544469#1 607492161#0 52872404 -355309980 243530828 -604487632#1 -604487632#0 -333878195 -604487634 -243530829#2 -243530830 -8505168#1 -8505168#0 25505536#4 -25505523#1 -25505523#0 25610215#0"/>
    </vehicle>
    <vehicle id="bike15" type="bike_bicycle" depart="29.18" departLane="best">
        <route edges="44529404 -82410227#0 -3042236#2 -3042236#1 21594233#4 21594233#5 333890926 36268330#1"/>
    </vehicle>
    <vehicle id="bike16" type="bike_bicycle" depart="31.13" departLane="best">
        <route edges="190465817#6 412020085 30533027 333512782#0 333512782#1 333891065#1 333891065#3 179060064#0 179060064#1 188228392 190465753#0 591214267 30996540 129701474 30996538#1 30996538#3 30996538#4 330344155 190601547 216122812#0 -53436020 -646033698#1 -646033699 75278724#0 75278724#1 71742190"/>
    </vehicle>
    <vehicle id="bike17" type="bike_bicycle" depart="33.08" departLane="best">
        <route edges="-9702437#2 9702437#2 9702437#3 9702437#4 9702437#5 -480902190 -381556754#3 -381556754#0 152176399#1 152176399#2 381540202#0 554713074 554713073 381540198#0 381525479#1 381525479#3 380398480#0 380398480#1 380398480#2 60578532#1 554713069 60578531#1 -554713067 -152176404#1 -46239724 -450274067 -23138735#0 142944424 188015327#0 43145614#0 143586195#0 143586195#1 143586333 118756784 190581795 143586334#0 -611783714#1 -26348384#1 -26348384#0 378906222#17 378906222#18 378906222#19 378906222#20 378906222#21 378906222#22 378906222#23 378906222#24 188228394#8 188228391 188228383 143586206 23165591#0"/>
    </vehicle>
    <vehicle id="bike18" type="bike_bicycle" depart="35.02" departLane="best">
        <route edges="463057022#3 -463057022#3 -463057022#2 -463057022#1 -463057022#0 463057021 463057026 463057027#1 -307541272#2 -307541272#1 606439155 314405033#0 314405033#1 606439158 220387889#0 220387889#1 525949274 220387887#0 220387887#1 220387887#2 220387887#5 220387887#6 141137046#1 141137046#3 141137047#0 141137047#2 141137047#3 -152813983 20297117 355309979 448979126 654708414 38563905 -21591353#1 -21591353#0 -604905865#1 -604905865#0 -188690103 333891048#0 333891048#1 36268326#0 36268326#1 179060064#1 188228392 190465753#0 591214267 30996540 129701474 30996538#1 30996538#3 292815352#1 292815353"/>
    </vehicle>
    <vehicle id="bike19" type="bike_bicycle" depart="36.97" departLane="best" departSpeed="max">
        <route edges="501691376#0 501691376#2 143586213#3 179056989 23156855#1 450274076 181361656#0 181361656#2 181361656#3 142944253#2 142944552 496730533#8 188015326 23138735#0 -45845996 45845994#1 45846128 -45846095#3 -45846095#2 -45846095#1 -45846095#0 -38564664 448979127#1 355309978 20297117 -604487645 -297154230#0 243531050"/>
    </vehicle>
    <vehicle id="bike20" type="bike_bicycle" depart="38.91" departLane="best">
        <route edges="333396052#0 333396052#1 333396485#0 333396485#1 -333396061#1 -333396061#0 -333396033#0 333393240 333393248#3 333393248#4 333393248#5 333393242 -348251627#1 -348251627#0 -348251623#0 -18570707 471566758 18570739#0 516884640 22774089 174302038 516884628 516884629 370610345#0 370610345#1 370610344 370610338 517998602 -469768614 509204459#1 440252808#0 659348620 5822870#0 5822870#1 385295530 -151157105#1 151157106 129380148#2 606450771 39544469#1 607492161#0 52872404 -355309980 243530828 -604487632#1 -604487632#0 -333878195 -604487634 -243530829#2 -243530830 -8505168#1 -8505168#0 25505536#4 -25505523#1 -25505523#0 25610215#0 25610215#1 81198458 -164051002 -119390895#13 -119390895#10 -119390895#9 -119390895#8 -119390895#5 -119390895#4 -164050962"/>
    </vehicle>
    <vehicle id="bike21" type="bike_bicycle" depart="40.86" departLane="best" departSpeed="max">
        <route edges="-371964291 174299069#2 -174299055#3 -174299055#0 18570957#0 18570957#1 -174302041#2 -174302041#1 -174302041#0 471569882 516892197 34330328#0 34330328#1 516884633#0 516884633#2 516884641#0 516892200 516884640 22774089 174302038 516884628 516884629 370610345#0 370610345#1 370610344 370610338 517998602 -469768614 509204459#1 440252808#0 659348620 22761554 -5009103#1 -5009103#0 25503233#0 25503233#1 25503284 25503289 -30996536#0 -30372441 -30996540 -591214267 -39977162#1 -39977162#0 30373867 30451267 25469048#1 631613582 631613581 625856813#0 333512779#0 631613577 631613576 625856812 598319283#0 598319283#1 598319283#2 -598319283#2"/>
    </vehicle>
    <vehicle id="bike23" type="bike_bicycle" depart="44.75" departLane="best">
        <route edges="-188476880#1 -188476880#0 -27471775#1 -27471775#0 307556942 381540202#0 554713074 554713073 381540198#0 381525479#1 381525479#3 380398480#0 380398480#1 380398480#2 60578532#1 554713069 60578531#1 -554713067 -152176404#1 -46239724 -450274067 -45845996 45845994#1 45846128 -45846095#3 -45846095#2 -45846095#1 -45846095#0 -38564664 448979127#1 355309978 20297117 152813991#0 152813991#1 333878200#1 -295931067#4 -295931067#3 -295931067#2 -295931067#1 -295931067#0 -25610215#3 -25610215#2 -25610215#1 -25610215#0 4928824 25505523#1 -396739433 -25505536#3 -25505536#2 -25505536#1 -25505536#0 -53721855"/>
    </vehicle>
    <vehicle id="bike24" type="bike_bicycle" depart="46.69" departLane="best">
        <route edges="26949512#1 220387887#5 220387887#6 141137046#1 141137046#3 141137047#0 141137047#2 141137047#3 -152813983 20297117 152813991#0 152813991#1 333878200#1 -295931067#4 -295931067#3 -164051000#13 164050994 -23197390#14 164051582 164050996#4 164050996#5 164050996#6 164050996#7 164050996#8 164050996#10 164050977 119390895#8"/>
    </vehicle>
    <vehicle id="bike25" type="bike_bicycle" depart="48.64" departLane="best" departSpeed="max">
        <route edges="-8298127#1 -8298127#0 -22700416#1 -22700416#0 23165590#0 656328340 32958571#1 32958571#2 32958571#3 32958571#4 43145613#1 43145613#2 184627082#1 142944558 188015329 188015326 23138735#0 -45845996 45845994#1 45846128 -45846095#3 -45846095#2 -45846095#1 -45846095#0 -38564664 448979127#1 355309978 20297117 152813991#0 152813991#1 333878200#1 -295931067#4 -295931067#3 -295931067#2 -295931067#1 -295931067#0 -25610215#3 -25610215#2 -25610215#1 -25610215#0 4928824 25505523#1 -396739433 8505168#0 -396739451"/>
    </vehicle>
    <vehicle id="bike26" type="bike_bicycle" depart="50.59" departLane="best" departSpeed="max">
        <route edges="-451930795 -141137043#1 654708419 239479777 239479767#0 60578531#1 -554713067 -152176404#1 -46239724 -450274067 -23138735#0 142944424 188015327#0 43145614#0 143586195#0 143586195#1 143586318#0 637815817#0"/>
    </vehicle>
    <vehicle id="bike28" type="bike_bicycle" depart="54.48" departLane="best">
        <route edges="-32752621 32752621 516892195 4272708 516884618#0 516884618#1 516884619 48344573#0 48344573#1 -516884626 -516884625 180326068#0 25501955#0 25501955#1 370610344 370610338 517998602 -469768614 509204459#1 440252808#0 659348620 22761554 -5009103#1 -5009103#0 25503233#0 25503233#1 25503284 25503289 -30996536#0 -30372441 -30996540 -591214267 -39977162#1 -39977162#0 30373867 30451267 25469048#1 631613582 631613581 625856813#0 179060064#0 36268326#2"/>
    </vehicle>
    <vehicle id="bike29" type="bike_bicycle" depart="56.42" departLane="best">
        <route edges="-307556942 307556942 381540202#0 554713074 554713073 381540198#0 381525479#1 381525479#3 380398480#0 380398480#1 380398480#2 60578532#1 554713069 60578531#1 -554713067 -152176404#1 -46239724 -450274067 -45845996 45845994#1 45846128 -45846095#3 -45846095#2 -45846095#1 -45846095#0 -38564664 448979127#1 355309978 20297117 152813991#0 152813991#1 333878200#1 -295931067#4 -295931067#3 -295931067#2 -295931067#1 -295931067#0 -25610215#3 -25610215#2 -25610215#1 -25610215#0 4928824 25505523#1 -396739433 -25505536#3 -25505536#2 -25505536#1 -25505536#0 -53721855 -40288842#1 -190601538 -194028632 194028631 194028630 216122812#0 23201600#0 23201600#1 23201600#2 23201600#3 23201600#4 23201600#5 23201600#6 23201600#7 23201600#8 23201600#9 23201600#10 23201600#11 23201600#12 23621890#1 23621890#2 23621890#3 139787573"/>
    </vehicle>
    <vehicle id="bike30" type="bike_bicycle" depart="58.37" departLane="best">
        <route edges="93762556#1 8496681#1 24717289 190465763 53436018#2 40288934#0 40288934#1 53721854 190465815 8505164 25505536#0 -25505536#0 -53721855 8505182 8505170 333902145#0 333902145#1 333902145#2 333902145#3 333902145#4 333878195 243530826 292815351#3 36268765 36268766#0 235528303 606450769 36268767 5823970 -645338244#1 -645338244#0 -153147535 460573525 627882342 627882349 517031506#0 645338232#0 645338232#1 645338233 235536382 315771482 645338239 22761468#3 22761468#4 25501512 31027837#0 31027837#2 31027838#0 31027838#2 31027838#3 31027838#4"/>
    </vehicle>
    <vehicle id="bike31" type="bike_bicycle" depart="60.31" departLane="best">
        <route edges="220387887#0 220387887#1 217558037 217557692#3 464431267#4 464431267#5 464431267#6 464431267#7 464431267#8 464431267#9 464431267#10 464431267#11 464431267#12 464431267#13 464431267#14 464431268#4 307541272#2 463057029 220387891#0 220387891#1 463057018 463057022#0 463057022#1 463057022#2 463057022#3 463057022#4 460787688#1 460787688#2 460787688#3 460787688#4 460787688#5 460787688#6 654049725 543059990#0 451120809#2 451120809#3 463057277 584853313#1 368267186#0 368267186#1 351700501 129273989 32752621 516892195 4272708 516884618#0 516884618#1 516884619 516892199 34330328#0 34330328#1 516884633#0 516884633#2 516884641#0 471566756#0 -471566758 -516884642 348251623#0 -333396024 333393239#0 333393239#1 -333393245#1 333393244 333396044#1 333396037 333396046#6 333396046#0"/>
    </vehicle>
    <vehicle id="bike32" type="bike_bicycle" depart="62.26" departLane="best">
        <route edges="469768614 480045336 517998600 460573535#1 460573536 370610341 400216393#0 400216393#1 516884625 516884626 516884623 23505459 31028439 516884620 -516892195 -32752621 -129273989 -351700501 161303910 246109025#1 444316122#0 444316122#1 -543059990#0 -654049725 -541386221#1 -541386221#0 -311903943 -431576781#1 -431576781#0 -431576780 -463057020 232103860#0 463057021 463057026 463057027#1 -307541272#2 -307541272#1 606439155 314405033#0 314405033#1 606439158 220387889#0 220387889#1 525949274 220387887#0 220387887#1 220387887#2 220387887#5 220387887#6 654708419 239479777 239479767#0 60578531#1 -554713067 -152176404#1 -46239724 -450274067 -23138735#0 142944424 -496730538#2 142944421#1 -496730533#8 -496730533#5 -407197807#5 -407197807#4 -407197807#3 -407197807#2 407197807#2"/>
    </vehicle>
    <vehicle id="bike33" type="bike_bicycle" depart="64.20" departLane="best" departSpeed="max">
        <route edges="-379471200 -121708058#1 -554713067 -152176404#1 -46239724 -450274067 -23138735#0 142944424 188015327#0 43145614#0 143586195#0 143586195#1 143586333 118756784 190581795 143586334#0 -611783714#1 -26348384#1 -26348384#0 378906222#17 378906222#18 378906222#19 378906222#20 378906222#21 378906222#22 378906222#23 378906222#24 188228394#8 188228391 188228383 -46102577#0 -143586350#1 -143586350#0"/>
    </vehicle>
    <vehicle id="bike34" type="bike_bicycle" depart="66.15" departLane="best">
        <route edges="-543059990#0 543059990#0 451120809#2 451120809#3 463057277 584853313#1 368267186#0 368267186#1 351700501 129273989 32752621 516892195 4272708 516884618#0 516884618#1 516884619 48344573#0 48344573#1 -516884626 -516884625 180326068#0 25501955#0 25501955#1 370610344 370610338 517998602 -469768614 509204459#1 440252808#0 659348620 22761554 -5009103#1 -5009103#0 25503233#0 25503233#1 25503284 25503289 -30996536#0 -30372441 -30996540 -30996860#1 -30996860#0 30996861#0 240515083 190465779#0 188810427#0 380470018#0 511213979#1 -380470017#2 -380470017#1 -511210379"/>
    </vehicle>
    <vehicle id="bike35" type="bike_bicycle" depart="68.10" departLane="best">
        <route edges="-335355018#0 637815817#2 637815817#3 637815817#4 637815817#6 637815817#7 30412260 23190865 333891048#0 119390903#1 119390899 119390895#0 119390895#1 119390895#2 119390895#4 119390895#5 119395907#0 -164054511 -81198458 -25610215#1 -25610215#0 4928824 25505523#1 -396739433 8505168#0 8505168#1 243530830 243530829#2 243530829#3 333878195 243530826 292815351#3 36268765 36268766#0 235528303 606450769 36268767 5823970 -645338244#1 -645338244#0 -153147535 460573525 627882342 627882349 517031506#0 645338232#0 645338234#1 460573534#1 645338225"/>
    </vehicle>
    <vehicle id="bike36" type="bike_bicycle" depart="70.04" departLane="best" departSpeed="max">
        <route edges="516884651 516884646 425952121#0 22774089 174302038 516884628 516884629 370610345#0 370610345#1 370610344 370610338 517998602 -469768614 509204459#1 440252808#0 659348620 22761554 -5009103#1 -5009103#0 25503233#0 25503233#1 25503284 25503289 -30996536#0 -30372441 -30996540 -30996860#1 -30996860#0 30996861#0 190465787 190465797#0 190465797#1 190465785#0 190465791#0 190465783#0 31023285#1 513471445 190465781#0 39972604#1 39972604#2 146481861 146481665#1 146481665#2 146481665#3 64648387#0 64648387#1 64648387#2 -64648387#2"/>
    </vehicle>
    <vehicle id="bike38" type="bike_bicycle" depart="73.93" departLane="best">
        <route edges="604905865#0 23197390#0 23197390#1 23197390#2 23197390#3 23197390#4 23197390#5 23197390#6 23197390#7 -164050964 -164050998#1 -164050998#0 164050998#0"/>
    </vehicle>
    <vehicle id="bike39" type="bike_bicycle" depart="75.88" departLane="best">
        <route edges="-446704734#2 -204552620 204552608#1 444316122#1 -543059990#0 -654049725 -541386221#1 -541386221#0 -311903943 -431576781#1 -431576781#0 -431576780 -463057020 232103860#0 463057021 463057026 463057027#1 -307541272#2 -307541272#1 606439155 314405033#0 314405033#1 606439158 220387889#0 464431267#4 464431267#5 464431267#6 464431267#7 464431267#8 464431267#9 464431267#10 464431267#11 -464431267#11"/>
    </vehicle>
    <vehicle id="bike40" type="bike_bicycle" depart="77.82" departLane="best">
        <route edges="22701043#3 -22700416#1 -22700416#0 23165590#0 656328340 32958571#1 32958571#2 32958571#3 32958571#4 43145613#1 43145613#2 184627082#1 142944558 188015329 188015330#1 142944258 43145614#0 143586195#0 143586195#1 143586318#0 637815817#0 637815817#2 637815817#3 637815817#4 637815817#6 637815817#7 30412260 23190865 53721857 188228388 188228389 188228381#0 188228397 119390900#1 -333890926 -21594233#5 -21594233#4 3042236#1 3042236#2 3042236#3 3042236#5 3042236#6 -656095436 499499321 -499499321"/>
    </vehicle>
    <vehicle id="bike41" type="bike_bicycle" depart="79.77" departLane="best">
        <route edges="23201600#3 23201600#4 -78797023 144870968#10 144870968#11 53436020 4928828#1 646033701 216122814#0 216122814#1 190465810 330344151 240518004 39544470#0 609026210#1 609026399#0 188810427#2 -190465779#1 -190465779#0 566274278#0"/>
    </vehicle>
    <vehicle id="bike42" type="bike_bicycle" depart="81.72" departLane="best">
        <route edges="121708058#1 -121708058#1 152176400#2 554713068#0 60578547#1 604905863#0 26949512#1 123342665#1 123342665#3 123342665#4 208440383 244270739#0 244270739#1 244270739#2 244270739#3 562191406#0 -419279932#1 -419279932#0"/>
    </vehicle>
    <vehicle id="bike43" type="bike_bicycle" depart="83.66" departLane="best">
        <route edges="9781304 23179956#1 23179957 121708051#3 48344707#2 152813966 25444569#0 60578532#1 554713069 60578531#1 -554713067 -152176404#1 -46239724 -450274067 -23138735#0 142944424 188015327#0 43145614#0 143586195#0 143586195#1 143586318#0 637815817#0 637815817#2 637815817#3 637815817#4 637815817#6 637815817#7 30412260 23190865 333891048#0 333891048#1 36268326#0 36268326#1 179060064#1 188228392 190465753#0 591214267 -30996860#1 -30996860#0 30996861#0 240515083 190465779#0"/>
    </vehicle>
    <vehicle id="bike45" type="bike_bicycle" depart="87.55" departLane="best" departSpeed="max">
        <route edges="-197389603 -22911254#0 606439133 142944231 659691578 606439134 458542845#0 24438744#1 24438744#2 24438744#3 184627082#0 184627082#1 142944558 188015329 188015330#1 142944258 43145614#0 143586195#0 143586195#1 143586318#0 637815817#0 637815817#2 637815817#3 637815817#4 637815817#6 637815817#7 30412260 23190865 53721857 188228388 188228389 188228381#0 188228397 119390900#1 188228398#1 188228382 188228387#0 30616382"/>
    </vehicle>
    <vehicle id="bike46" type="bike_bicycle" depart="89.50" departLane="best">
        <route edges="425050767#1 131675656#0 131675656#1 131675656#2 190417294#0 31023169#1 31023169#2 25485694 190465790#1 190465788#0 30996866#0 190465793 25469034 190465798#0 190465798#2 190465795 24717289 190465763 591214267 30996540 129701474 30996538#1 30996538#3 30996538#4 330344155 190601547 216122812#0 23201600#0 23201600#1 23201600#2 34851340#0 144870968#11"/>
    </vehicle>
    <vehicle id="bike47" type="bike_bicycle" depart="91.44" departLane="best">
        <route edges="-164050983 164051000#9 164051000#10 164051000#11 164051000#12 164051000#13 295931067#3 295931067#4 25610297 152813991#2 25197931#1 25197931#2 152813962 38563902#1 448979127#0 448979127#1 355309978 38563904 -141137047#3 -141137047#2 -141137047#0 -141137046#3 -141137046#2 26949512#1 141137045#1 141137045#3"/>
    </vehicle>
    <vehicle id="bike48" type="bike_bicycle" depart="93.39" departLane="best">
        <route edges="97662628#0 -97662628#0 -609383757 -33041313#0 188228394#3 188228394#5 188228394#8 188228391 188228383 143586213#1 143586213#2 143586213#3 179056989 23156855#1 450274076 181361656#0 181361656#2 181361656#3 142944253#2 142944552 496730533#8 188015326 23138735#0 450274067 46239724 152176404#1 554713067 152176400#2 554713068#0 60578547#1 604905863#0 26949512#1 123342665#1 123342665#3 123342665#4 208440383"/>
    </vehicle>
    <vehicle id="bike49" type="bike_bicycle" depart="95.33" departLane="best">
        <route edges="665684610#1 665684608#3 -31027838#2 -31027838#1 -31027837#2 -31027837#0 -624397555 -22761468#4 -22761468#3 5822870#0 5822870#1 385295530 -151157105#1 151157106 129380148#2 606450771 39544469#1 607492161#0 52872404 -355309980 -24876272 24796133 45136321 24796135 169954450 -24796114 -507950426#1 507950426#1"/>
    </vehicle>
    <vehicle id="bike50" type="bike_bicycle" depart="97.28" departLane="best" departSpeed="max">
        <route edges="-114423898 -40150576#0 26811508 38837262#3 292815352#0 292815352#1 292815353 330344152 40288735#0 40288735#1 330344151 240518004 39544470#0 39544470#1 39544470#2 39544470#4 39544470#5 190465787 190465797#0 190465797#1 190465785#0 -23774300#1 23407099 -40154352#2 -346987718#1 -346987718#0 -346987719#1 346987723#0"/>
    </vehicle>
    <vehicle id="bike51" type="bike_bicycle" depart="99.23" departLane="best">
        <route edges="330345719#1 330345719#2 297909262 330344152 40288735#0 40288735#1 330344151 240518004 39544470#0 39544470#1 39544470#2 39544470#4 39544470#5 36268341#0 190465795 24717289 190465763 53436021 30451267 25469048#1 631613582 631613581 625856813#0 30616382 189307628#0 189307665 119390903#0 -333891048#0 333890922 604905865#0 604905865#1 21591353#0 21591353#1 25197931#0 25197931#1 25197931#2 152813962 38563902#1 448979127#0 448979127#1 355309978 38563904 -141137047#3 -141137047#2 -141137047#0 -141137046#3 -141137046#2 26949512#1 217558040"/>
    </vehicle>
    <vehicle id="bike52" type="bike_bicycle" depart="101.17" departLane="best" departSpeed="max">
        <route edges="-451930795 -141137043#1 26949512#1 123342665#1 123342665#3 123342665#4 208440383 244270739#0 244270739#1 244270739#2 244270739#3 562191406#0 307541272#1 307541272#2 463057029 220387891#0 220387891#1 463057018 463057022#0 463057022#1 463057022#2 463057022#3 463057022#4 460787688#1 460787688#2 460787688#3 460787688#4 460787688#5 460787688#6 654049725 543059990#0 451120809#2 451120809#3 463057277 584853313#1 368267186#0 368267186#1 351700501 129273989 32752621 516892195 4272708 516884618#0 516884618#1 516884619 48344573#0 48344573#1 -516884626 -516884625 180326068#0 25501955#0 25501955#1 370610344 370610338 517998602 -469768614 509204459#1 440252808#0 659348620 22761468#3 22761468#4 25501512 31027841#0 31027841#1"/>
    </vehicle>
    <vehicle id="bike53" type="bike_bicycle" depart="103.12" departLane="best">
        <route edges="-204552608#1 204552608#1 444316122#1 451120809#2 451120809#3 463057277 584853313#1 368267186#0 368267186#1 351700501 129273989 32752621 516892195 4272708 516884618#0 516884618#1 516884619 48344573#0 48344573#1 -516884626 -516884625 180326068#0 25501955#0 25501955#1 370610344 460573535#0 460573535#1 517031505 609032935 627882342 627882349 517031506#0 645338232#0 645338234#1 460573534#1 645338225 153147535"/>
    </vehicle>
    <vehicle id="bike54" type="bike_bicycle" depart="105.06" departLane="best">
        <route edges="152176400#2 554713068#0 60578547#1 604905863#0 141137046#1 141137046#3 249741911#0 652513926"/>
    </vehicle>
    <vehicle id="bike56" type="bike_bicycle" depart="108.95" departLane="best">
        <route edges="174302038 -174302038 516884631 174302039#0 516884641#0 471566756#0 -471566758 -516884642 348251623#0 -333396024 333393239#0 333393239#1 -333393245#1 333393244 333396044#1 333396044#2 333396044#4 -333396054#5 -333396059#2 -333396059#1 -333396059#0 -333396491"/>
    </vehicle>
    <vehicle id="bike57" type="bike_bicycle" depart="110.90" departLane="best">