<?xml version="1.0" encoding="UTF-8"?>
<!-- generated on 2019-02-06 15:52:14.145094 by $Id$ via randomTrips.py
  options: 
-->
<routes xmlns:xsi="http://www.w3.org/2001/XMLSchema-instance" xsi:noNamespaceSchemaLocation="http://sumo.dlr.de/xsd/routes_file.xsd">
    <vType id="bus_bus" vClass="bus">
    </vType>
    <trip id="bus0" depart="0.00" departLane="best" from="25407366" to="-141179036#2" type="bus_bus"/>
    <trip id="bus2" depart="8.24" departLane="best" from="333891065#0" to="31027838#0" type="bus_bus"/>
    <trip id="bus3" depart="12.35" departLane="best" from="517998600" to="-190601538" type="bus_bus"/>
    <trip id="bus4" depart="16.47" departLane="best" from="151163917#1" to="-141261874#0" type="bus_bus"/>
    <trip id="bus5" depart="20.59" departLane="best" from="-460787688#0" to="190586232" type="bus_bus"/>
    <trip id="bus6" depart="24.71" departLane="best" from="-141179035#5" to="-431576780" type="bus_bus"/>
    <trip id="bus7" depart="28.83" departLane="best" from="25501955#0" to="22701043#1" type="bus_bus"/>
    <trip id="bus8" depart="32.95" departLane="best" from="-460787688#3" to="23201699" type="bus_bus"/>
    <trip id="bus10" depart="41.18" departLane="best" from="141179035#13" to="-3042238#2" type="bus_bus"/>
    <trip id="bus12" depart="49.42" departLane="best" departSpeed="max" from="-190465775#1" to="-217554187#1" type="bus_bus"/>
    <trip id="bus13" depart="53.54" departLane="best" from="48344707#2" to="245296561#1" type="bus_bus"/>
    <trip id="bus14" depart="57.65" departLane="best" from="206628174#1" to="656299984#1" type="bus_bus"/>
    <trip id="bus16" depart="65.89" departLane="best" from="463057022#0" to="25444569#0" type="bus_bus"/>
    <trip id="bus18" depart="74.13" departLane="best" from="31027837#0" to="-143586355#2" type="bus_bus"/>
    <trip id="bus20" depart="82.36" departLane="best" departSpeed="max" from="-188473746" to="-53721850" type="bus_bus"/>
    <trip id="bus21" depart="86.48" departLane="best" from="-190581793#0" to="-9897177" type="bus_bus"/>
    <trip id="bus22" depart="90.60" departLane="best" from="25400473#1" to="143586213#3" type="bus_bus"/>
    <trip id="bus23" depart="94.72" departLane="best" from="142944253#2" to="-460787688#1" type="bus_bus"/>
    <trip id="bus24" depart="98.84" departLane="best" from="-554713067" to="627882349" type="bus_bus"/>
    <trip id="bus25" depart="102.95" departLane="best" departSpeed="max" from="25501626" to="249741911#0" type="bus_bus"/>
    <trip id="bus26" depart="107.07" departLane="best" departSpeed="max" from="-33041313#1" to="349349451" type="bus_bus"/>
    <trip id="bus27" depart="111.19" departLane="best" from="-31027837#0" to="143586334#0" type="bus_bus"/>
    <trip id="bus28" depart="115.31" departLane="best" from="217558040" to="31028439" type="bus_bus"/>
    <trip id="bus29" depart="119.43" departLane="best" departSpeed="max" from="47854310" to="428817400#1" type="bus_bus"/>
    <trip id="bus30" depart="123.54" departLane="best" departSpeed="max" from="-46102597" to="-141263264#0" type="bus_bus"/>
    <trip id="bus31" depart="127.66" departLane="best" from="118756784" to="-8320141#1" type="bus_bus"/>
    <trip id="bus32" depart="131.78" departLane="best" departSpeed="max" from="-45729831#2" to="637815817#2" type="bus_bus"/>
    <trip id="bus33" depart="135.90" departLane="best" from="516884623" to="141179035#16" type="bus_bus"/>
    <trip id="bus34" depart="140.02" departLane="best" from="25502921#1" to="146482573#3" type="bus_bus"/>
    <trip id="bus35" depart="144.14" departLane="best" from="584225675" to="188476880#2" type="bus_bus"/>
    <trip id="bus37" depart="152.37" departLane="best" from="220387889#0" to="-656095436" type="bus_bus"/>
    <trip id="bus38" depart="156.49" departLane="best" from="23159360#3" to="53436021" type="bus_bus"/>
    <trip id="bus40" depart="164.73" departLane="best" departSpeed="max" from="9897177" to="190601547" type="bus_bus"/>
    <trip id="bus41" depart="168.84" departLane="best" from="-190417294#0" to="-143586355#4" type="bus_bus"/>
    <trip id="bus42" depart="172.96" departLane="best" from="-21594233#5" to="25502121" type="bus_bus"/>
    <trip id="bus43" depart="177.08" departLane="best" from="444316122#0" to="16168075#2" type="bus_bus"/>
    <trip id="bus44" depart="181.20" departLane="best" from="9781305" to="21594797#0" type="bus_bus"/>
    <trip id="bus46" depart="189.43" departLane="best" from="-141137045#2" to="34330328#1" type="bus_bus"/>
    <trip id="bus47" depart="193.55" departLane="best" from="26961484" to="220387887#0" type="bus_bus"/>
    <trip id="bus48" depart="197.67" departLane="best" from="-554713067" to="25505536#4" type="bus_bus"/>
    <trip id="bus49" depart="201.79" departLane="best" from="179060064#1" to="645338231" type="bus_bus"/>
    <trip id="bus50" depart="205.91" departLane="best" from="516884620" to="-659691578" type="bus_bus"/>
    <trip id="bus51" depart="210.03" departLane="best" from="23201600#8" to="-3042236#3" type="bus_bus"/>
    <trip id="bus52" depart="214.14" departLane="best" departSpeed="max" from="419279932#0" to="216122812#0" type="bus_bus"/>
    <trip id="bus53" depart="218.26" departLane="best" from="-10304101" to="141179036#2" type="bus_bus"/>
    <trip id="bus54" depart="222.38" departLane="best" from="-141179035#13" to="606439152" type="bus_bus"/>
    <trip id="bus55" depart="226.50" departLane="best" from="516884628" to="463057029" type="bus_bus"/>
    <trip id="bus56" depart="230.62" departLane="best" departSpeed="max" from="10665805" to="-152176404#1" type="bus_bus"/>
    <trip id="bus57" depart="234.73" departLane="best" from="516884626" to="645284559#1" type="bus_bus"/>
    <trip id="bus58" depart="238.85" departLane="best" departSpeed="max" from="-188476880#3" to="190465797#0" type="bus_bus"/>
    <trip id="bus59" depart="242.97" departLane="best" departSpeed="max" from="188228394#0" to="22761554" type="bus_bus"/>
    <trip id="bus60" depart="247.09" departLane="best" from="-541386221#0" to="516884625" type="bus_bus"/>
    <trip id="bus61" depart="251.21" departLane="best" departSpeed="max" from="152176399#0" to="-460787688#5" type="bus_bus"/>
    <trip id="bus62" depart="255.33" departLane="best" from="21521128" to="351700501" type="bus_bus"/>
    <trip id="bus63" depart="259.44" departLane="best" from="-425050767#1" to="141179035#11" type="bus_bus"/>
    <trip id="bus64" depart="263.56" departLane="best" from="9781304" to="26811422" type="bus_bus"/>
    <trip id="bus65" depart="267.68" departLane="best" from="157109027#0" to="19644867#2" type="bus_bus"/>
    <trip id="bus69" depart="284.15" departLane="best" departSpeed="max" from="-46102597" to="554713067" type="bus_bus"/>
    <trip id="bus70" depart="288.27" departLane="best" departSpeed="max" from="495246282" to="-18761926#1" type="bus_bus"/>
    <trip id="bus72" depart="296.51" departLane="best" departSpeed="max" from="458117703" to="-40154352#1" type="bus_bus"/>
    <trip id="bus73" depart="300.62" departLane="best" from="-190465779#2" to="179060064#0" type="bus_bus"/>
    <trip id="bus74" depart="304.74" departLane="best" departSpeed="max" from="152176399#0" to="189307625" type="bus_bus"/>
    <trip id="bus76" depart="312.98" departLane="best" from="8505164" to="-217554187#1" type="bus_bus"/>
    <trip id="bus77" depart="317.10" departLane="best" from="143586355#0" to="142944231" type="bus_bus"/>
    <trip id="bus78" depart="321.22" departLane="best" from="5007495#2" to="-606696311#0" type="bus_bus"/>
    <trip id="bus79" depart="325.33" departLane="best" from="-39972604#2" to="188228383" type="bus_bus"/>
    <trip id="bus80" depart="329.45" departLane="best" from="151163917#1" to="-9897177" type="bus_bus"/>
    <trip id="bus81" depart="333.57" departLane="best" from="-5009103#0" to="60578527" type="bus_bus"/>
    <trip id="bus83" depart="341.81" departLane="best" departSpeed="max" from="217554187#0" to="-146276277#2" type="bus_bus"/>
    <trip id="bus84" depart="345.92" departLane="best" departSpeed="max" from="653756291#0" to="606439133" type="bus_bus"/>
    <trip id="bus85" depart="350.04" departLane="best" from="485685534#1" to="-333890926" type="bus_bus"/>
    <trip id="bus86" depart="354.16" departLane="best" from="189307622" to="-463057020" type="bus_bus"/>
    <trip id="bus87" depart="358.28" departLane="best" from="142944424" to="8435003#1" type="bus_bus"/>
    <trip id="bus88" depart="362.40" departLane="best" from="180326068#0" to="163125196#1" type="bus_bus"/>
    <trip id="bus90" depart="370.63" departLane="best" from="217558032" to="333902145#4" type="bus_bus"/>
    <trip id="bus91" depart="374.75" departLane="best" from="-27471775#1" to="131675656#0" type="bus_bus"/>
    <trip id="bus92" depart="378.87" departLane="best" departSpeed="max" from="653756291#0" to="23201239#3" type="bus_bus"/>
    <trip id="bus93" depart="382.99" departLane="best" from="21594233#3" to="40150503#3" type="bus_bus"/>
    <trip id="bus94" depart="387.11" departLane="best" from="-143586355#1" to="23201600#2" type="bus_bus"/>
    <trip id="bus96" depart="395.34" departLane="best" from="-3042236#5" to="646033698#0" type="bus_bus"/>
    <trip id="bus97" depart="399.46" departLane="best" departSpeed="max" from="-188473746" to="-40150576#0" type="bus_bus"/>
    <trip id="bus98" depart="403.58" departLane="best" from="23179957" to="31023285#1" type="bus_bus"/>
    <trip id="bus99" depart="407.70" departLane="best" from="-463057022#3" to="-23201239#1" type="bus_bus"/>
    <trip id="bus101" depart="415.93" departLane="best" from="23179956#1" to="25469048#1" type="bus_bus"/>
    <trip id="bus102" depart="420.05" departLane="best" from="146482573#4" to="23201600#12" type="bus_bus"/>
    <trip id="bus103" depart="424.17" departLane="best" from="190601551" to="625856812" type="bus_bus"/>
    <trip id="bus104" depart="428.29" departLane="best" departSpeed="max" from="-428817400#1" to="333902145#1" type="bus_bus"/>
    <trip id="bus105" depart="432.41" departLane="best" from="-469768614" to="146482573#3" type="bus_bus"/>
    <trip id="bus106" depart="436.52" departLane="best" from="258130590#2" to="139785377#0" type="bus_bus"/>
    <trip id="bus107" depart="440.64" departLane="best" from="119390900#0" to="40150576#1" type="bus_bus"/>
    <trip id="bus108" depart="444.76" departLane="best" from="-174299053#5" to="188476880#1" type="bus_bus"/>
    <trip id="bus109" depart="448.88" departLane="best" from="-174302038" to="-46239724" type="bus_bus"/>
    <trip id="bus110" depart="453.00" departLane="best" from="142944253#1" to="-307541272#2" type="bus_bus"/>
    <trip id="bus111" depart="457.11" departLane="best" from="463057029" to="331478122#7" type="bus_bus"/>
    <trip id="bus112" depart="461.23" departLane="best" from="233287122#0" to="8505164" type="bus_bus"/>
    <trip id="bus113" depart="465.35" departLane="best" departSpeed="max" from="25502921#0" to="-141137043#3" type="bus_bus"/>
    <trip id="bus114" depart="469.47" departLane="best" from="460573534#0" to="139785375" type="bus_bus"/>
    <trip id="bus115" depart="473.59" departLane="best" from="25503166#1" to="631613581" type="bus_bus"/>
    <trip id="bus116" depart="477.71" departLane="best" from="-23407090" to="-23165590#0" type="bus_bus"/>
    <trip id="bus118" depart="485.94" departLane="best" from="-606439133" to="245296561#1" type="bus_bus"/>
    <trip id="bus119" depart="490.06" departLane="best" from="327109845#0" to="-446704734#0" type="bus_bus"/>
    <trip id="bus120" depart="494.18" departLane="best" from="25197931#1" to="-662506168#0" type="bus_bus"/>
    <trip id="bus121" depart="498.30" departLane="best" from="190417294#0" to="554713067" type="bus_bus"/>
    <trip id="bus122" depart="502.41" departLane="best" from="48344573#1" to="-21594233#0" type="bus_bus"/>
    <trip id="bus123" depart="506.53" departLane="best" departSpeed="max" from="152176399#0" to="-9897177" type="bus_bus"/>
    <trip id="bus124" depart="510.65" departLane="best" departSpeed="max" from="-121711407" to="42772472" type="bus_bus"/>
    <trip id="bus125" depart="514.77" departLane="best" departSpeed="max" from="25400500" to="-654049725" type="bus_bus"/>
    <trip id="bus128" depart="527.12" departLane="best" from="463057277" to="23201600#10" type="bus_bus"/>
    <trip id="bus129" depart="531.24" departLane="best" from="-25503166#6" to="-24996349#2" type="bus_bus"/>
    <trip id="bus130" depart="535.36" departLane="best" departSpeed="max" from="10665805" to="53721850" type="bus_bus"/>
    <trip id="bus132" depart="543.60" departLane="best" from="53721857" to="-460787688#2" type="bus_bus"/>
    <trip id="bus133" depart="547.71" departLane="best" from="-5009103#0" to="-22700416#0" type="bus_bus"/>
    <trip id="bus135" depart="555.95" departLane="best" from="143586355#6" to="25485694" type="bus_bus"/>
    <trip id="bus136" depart="560.07" departLane="best" from="-27471775#0" to="606439155" type="bus_bus"/>
    <trip id="bus137" depart="564.19" departLane="best" departSpeed="max" from="5009103#0" to="82410227#1" type="bus_bus"/>
    <trip id="bus138" depart="568.30" departLane="best" from="458542845#0" to="516884652" type="bus_bus"/>
    <trip id="bus139" depart="572.42" departLane="best" from="-141179035#2" to="370610345#1" type="bus_bus"/>
    <trip id="bus140" depart="576.54" departLane="best" from="141137045#3" to="606439164" type="bus_bus"/>
    <trip id="bus143" depart="588.89" departLane="best" from="5113251#0" to="5009104#1" type="bus_bus"/>
    <trip id="bus144" depart="593.01" departLane="best" from="18570957#1" to="141137045#3" type="bus_bus"/>
    <trip id="bus145" depart="597.13" departLane="best" from="446704735#0" to="-516884626" type="bus_bus"/>
    <trip id="bus146" depart="601.25" departLane="best" departSpeed="max" from="-141179035#16" to="-419279932#0" type="bus_bus"/>
    <trip id="bus147" depart="605.37" departLane="best" from="139785377#3" to="5113251#0" type="bus_bus"/>
    <trip id="bus148" depart="609.49" departLane="best" from="653756256" to="-9897177" type="bus_bus"/>
    <trip id="bus152" depart="625.96" departLane="best" from="645338239" to="-82410227#0" type="bus_bus"/>
    <trip id="bus153" depart="630.08" departLane="best" from="-21594233#3" to="181361656#3" type="bus_bus"/>
    <trip id="bus154" depart="634.19" departLane="best" from="331478122#7" to="141179035#14" type="bus_bus"/>
    <trip id="bus155" depart="638.31" departLane="best" from="-5113254" to="333396048#0" type="bus_bus"/>
    <trip id="bus156" depart="642.43" departLane="best" from="215080599" to="333902153" type="bus_bus"/>
    <trip id="bus157" depart="646.55" departLane="best" from="333902153" to="31023168#1" type="bus_bus"/>
    <trip id="bus158" depart="650.67" departLane="best" from="25503166#2" to="141179037#3" type="bus_bus"/>
    <trip id="bus159" depart="654.79" departLane="best" from="32752621" to="139785377#2" type="bus_bus"/>
    <trip id="bus160" depart="658.90" departLane="best" departSpeed="max" from="10665808" to="152813991#2" type="bus_bus"/>
    <trip id="bus161" depart="663.02" departLane="best" from="143586355#0" to="123342665#4" type="bus_bus"/>
    <trip id="bus162" depart="667.14" departLane="best" from="-23165590#1" to="16168075#0" type="bus_bus"/>
    <trip id="bus164" depart="675.38" departLane="best" from="554706401#1" to="25407366" type="bus_bus"/>
    <trip id="bus165" depart="679.49" departLane="best" from="-8505168#5" to="22761528" type="bus_bus"/>
    <trip id="bus166" depart="683.61" departLane="best" from="152813962" to="23201239#4" type="bus_bus"/>
    <trip id="bus167" depart="687.73" departLane="best" departSpeed="max" from="25502921#0" to="188791147" type="bus_bus"/>
    <trip id="bus168" depart="691.85" departLane="best" from="161303910" to="-463057020" type="bus_bus"/>
    <trip id="bus169" depart="695.97" departLane="best" from="446704735#1" to="-333902145#4" type="bus_bus"/>
    <trip id="bus170" depart="700.08" departLane="best" departSpeed="max" from="-188476880#3" to="19643597" type="bus_bus"/>
    <trip id="bus171" depart="704.20" departLane="best" from="460573535#0" to="40150503#4" type="bus_bus"/>
    <trip id="bus172" depart="708.32" departLane="best" from="264963988#0" to="-5009103#0" type="bus_bus"/>
    <trip id="bus173" depart="712.44" departLane="best" from="-419279932#1" to="-141179036#1" type="bus_bus"/>
    <trip id="bus176" depart="724.79" departLane="best" departSpeed="max" from="-40150503#4" to="330344155" type="bus_bus"/>
    <trip id="bus177" depart="728.91" departLane="best" from="190465779#0" to="-606439165" type="bus_bus"/>
    <trip id="bus178" depart="733.03" departLane="best" from="25502921#2" to="-139785377#2" type="bus_bus"/>
    <trip id="bus179" depart="737.15" departLane="best" from="370610344" to="42772469#1" type="bus_bus"/>
    <trip id="bus180" depart="741.27" departLane="best" from="-21594233#0" to="174302037" type="bus_bus"/>
    <trip id="bus181" depart="745.38" departLane="best" from="-333902145#3" to="645338237" type="bus_bus"/>
    <trip id="bus182" depart="749.50" departLane="best" from="190586232" to="-146276277#2" type="bus_bus"/>
    <trip id="bus184" depart="757.74" departLane="best" from="181361656#2" to="45748887#0" type="bus_bus"/>
    <trip id="bus185" depart="761.86" departLane="best" from="23190865" to="645284559#3" type="bus_bus"/>
    <trip id="bus186" depart="765.98" departLane="best" from="517031506#0" to="24996349#4" type="bus_bus"/>
    <trip id="bus187" depart="770.09" departLane="best" from="327109846#1" to="190586229" type="bus_bus"/>
    <trip id="bus188" depart="774.21" departLane="best" from="463057022#2" to="22761528" type="bus_bus"/>
    <trip id="bus189" depart="778.33" departLane="best" from="53721850" to="395272650#1" type="bus_bus"/>
    <trip id="bus190" depart="782.45" departLane="best" from="188228392" to="-653756291#0" type="bus_bus"/>
    <trip id="bus192" depart="790.68" departLane="best" from="40150503#2" to="208440383" type="bus_bus"/>
    <trip id="bus193" depart="794.80" departLane="best" from="24438744#3" to="-8505170" type="bus_bus"/>
    <trip id="bus194" depart="798.92" departLane="best" from="-18570957#0" to="111747607#2" type="bus_bus"/>
    <trip id="bus195" depart="803.04" departLane="best" from="-604905865#1" to="141179035#5" type="bus_bus"/>
    <trip id="bus196" depart="807.16" departLane="best" from="21591353#1" to="-25503166#0" type="bus_bus"/>
    <trip id="bus197" depart="811.27" departLane="best" from="31027838#2" to="-174302038" type="bus_bus"/>
    <trip id="bus198" depart="815.39" departLane="best" from="144870968#10" to="22700416#0" type="bus_bus"/>
    <trip id="bus199" depart="819.51" departLane="best" from="146481665#2" to="-458542844#0" type="bus_bus"/>
    <trip id="bus200" depart="823.63" departLane="best" from="151157096#0" to="554706401#1" type="bus_bus"/>
    <trip id="bus201" depart="827.75" departLane="best" from="23159360#1" to="330344153" type="bus_bus"/>
    <trip id="bus202" depart="831.87" departLane="best" from="493493233" to="412020090" type="bus_bus"/>
    <trip id="bus203" depart="835.98" departLane="best" from="142944546#1" to="-139785377#3" type="bus_bus"/>
    <trip id="bus206" depart="848.34" departLane="best" from="146482573#4" to="40150503#2" type="bus_bus"/>
    <trip id="bus207" depart="852.46" departLane="best" departSpeed="max" from="21595198" to="24438744#3" type="bus_bus"/>
    <trip id="bus209" depart="860.69" departLane="best" from="153147529#1" to="-141261874#0" type="bus_bus"/>
    <trip id="bus210" depart="864.81" departLane="best" from="141137047#2" to="31027841#0" type="bus_bus"/>
    <trip id="bus211" depart="868.93" departLane="best" from="143586355#3" to="-333396048#1" type="bus_bus"/>
    <trip id="bus212" depart="873.05" departLane="best" from="188015327#0" to="-24996349#2" type="bus_bus"/>
    <trip id="bus213" depart="877.17" departLane="best" from="24282865#1" to="-141179037#1" type="bus_bus"/>
    <trip id="bus214" depart="881.28" departLane="best" from="-24282865#0" to="188476880#3" type="bus_bus"/>
    <trip id="bus215" depart="885.40" departLane="best" departSpeed="max" from="-45729831#2" to="141179037#2" type="bus_bus"/>
    <trip id="bus216" depart="889.52" departLane="best" from="38781032" to="143586334#0" type="bus_bus"/>
    <trip id="bus217" depart="893.64" departLane="best" from="370610345#0" to="463057029" type="bus_bus"/>
    <trip id="bus218" depart="897.76" departLane="best" departSpeed="max" from="-5113251#1" to="-190465817#5" type="bus_bus"/>
    <trip id="bus219" depart="901.87" departLane="best" from="-141179035#13" to="220387887#6" type="bus_bus"/>
    <trip id="bus220" depart="905.99" departLane="best" from="25501955#1" to="431576781#0" type="bus_bus"/>
    <trip id="bus222" depart="914.23" departLane="best" from="637815817#0" to="-431576781#0" type="bus_bus"/>
    <trip id="bus223" depart="918.35" departLane="best" from="-141179035#14" to="-3042236#3" type="bus_bus"/>
    <trip id="bus224" depart="922.46" departLane="best" from="-23165590#0" to="307556944#1" type="bus_bus"/>
    <trip id="bus225" depart="926.58" departLane="best" from="22700416#0" to="-47365571" type="bus_bus"/>
    <trip id="bus226" depart="930.70" departLane="best" from="-32752621" to="246109025#1" type="bus_bus"/>
    <trip id="bus227" depart="934.82" departLane="best" from="36268330#1" to="-22911254#1" type="bus_bus"/>
    <trip id="bus228" depart="938.94" departLane="best" from="460573536" to="653773419#0" type="bus_bus"/>
    <trip id="bus229" depart="943.06" departLane="best" from="-21594233#2" to="-141179036#3" type="bus_bus"/>
    <trip id="bus230" depart="947.17" departLane="best" from="645338232#0" to="146482573#5" type="bus_bus"/>
    <trip id="bus231" depart="951.29" departLane="best" from="315771480#0" to="-188791147" type="bus_bus"/>
    <trip id="bus232" depart="955.41" departLane="best" from="3042238#1" to="25502121" type="bus_bus"/>
    <trip id="bus233" depart="959.53" departLane="best" from="-190601538" to="42772472" type="bus_bus"/>
    <trip id="bus235" depart="967.76" departLane="best" from="425050767#1" to="142944258" type="bus_bus"/>
    <trip id="bus236" depart="971.88" departLane="best" from="152176405#0" to="143586280#5" type="bus_bus"/>
    <trip id="bus237" depart="976.00" departLane="best" from="190465813" to="142944244#2" type="bus_bus"/>
    <trip id="bus238" depart="980.12" departLane="best" from="487411728#0" to="46102582" type="bus_bus"/>
    <trip id="bus239" depart="984.24" departLane="best" from="-21591353#0" to="646033698#0" type="bus_bus"/>
    <trip id="bus240" depart="988.36" departLane="best" from="25400473#1" to="463057022#2" type="bus_bus"/>
    <trip id="bus241" depart="992.47" departLane="best" from="31027838#4" to="184627082#0" type="bus_bus"/>
    <trip id="bus242" depart="996.59" departLane="best" from="-604487632#0" to="458542845#0" type="bus_bus"/>
    <trip id="bus243" depart="1000.71" departLane="best" from="210979056" to="190465790#1" type="bus_bus"/>
    <trip id="bus244" depart="1004.83" departLane="best" from="152814002#2" to="355309979" type="bus_bus"/>
    <trip id="bus246" depart="1013.06" departLane="best" from="463057022#2" to="-190581793#0" type="bus_bus"/>
    <trip id="bus247" depart="1017.18" departLane="best" from="516884633#2" to="-606439165" type="bus_bus"/>
    <trip id="bus248" depart="1021.30" departLane="best" from="188015323#0" to="24996349#0" type="bus_bus"/>
    <trip id="bus249" depart="1025.42" departLane="best" from="142944424" to="-141261874#0" type="bus_bus"/>
    <trip id="bus250" depart="1029.54" departLane="best" from="488642460" to="-38563900" type="bus_bus"/>
    <trip id="bus251" depart="1033.65" departLane="best" from="141179035#13" to="516884652" type="bus_bus"/>
    <trip id="bus252" depart="1037.77" departLane="best" departSpeed="max" from="308227987" to="-9780341#1" type="bus_bus"/>
    <trip id="bus253" depart="1041.89" departLane="best" from="-141137043#2" to="645284559#3" type="bus_bus"/>
    <trip id="bus254" depart="1046.01" departLane="best" departSpeed="max" from="-188476880#3" to="34330328#0" type="bus_bus"/>
    <trip id="bus255" depart="1050.13" departLane="best" from="190417294#0" to="40286866" type="bus_bus"/>
    <trip id="bus256" depart="1054.25" departLane="best" from="3042238#1" to="26623996#0" type="bus_bus"/>
    <trip id="bus257" depart="1058.36" departLane="best" from="190465757" to="45519022#0" type="bus_bus"/>
    <trip id="bus259" depart="1066.60" departLane="best" from="3042239#1" to="141137045#5" type="bus_bus"/>
    <trip id="bus260" depart="1070.72" departLane="best" from="23129765#2" to="190465770#0" type="bus_bus"/>
    <trip id="bus261" depart="1074.84" departLane="best" departSpeed="max" from="197365079" to="174302038" type="bus_bus"/>
    <trip id="bus262" depart="1078.95" departLane="best" from="355309978" to="141261874#1" type="bus_bus"/>
    <trip id="bus263" depart="1083.07" departLane="best" from="31023169#1" to="-8505168#1" type="bus_bus"/>
    <trip id="bus264" depart="1087.19" departLane="best" departSpeed="max" from="-5113251#1" to="-23201239#1" type="bus_bus"/>
    <trip id="bus265" depart="1091.31" departLane="best" from="206628174#1" to="40288842#1" type="bus_bus"/>
    <trip id="bus266" depart="1095.43" departLane="best" departSpeed="max" from="-349349451" to="-463057022#3" type="bus_bus"/>
    <trip id="bus267" depart="1099.55" departLane="best" from="188822506#0" to="348251627#2" type="bus_bus"/>
    <trip id="bus268" depart="1103.66" departLane="best" from="82410227#1" to="21591353#0" type="bus_bus"/>
    <trip id="bus269" depart="1107.78" departLane="best" from="-653756292" to="-217557693#2" type="bus_bus"/>
    <trip id="bus270" depart="1111.90" departLane="best" departSpeed="max" from="-40150503#4" to="-516884626" type="bus_bus"/>
    <trip id="bus271" depart="1116.02" departLane="best" departSpeed="max" from="-348251630#1" to="-141179035#1" type="bus_bus"/>
    <trip id="bus272" depart="1120.14" departLane="best" from="20297117" to="-8505168#6" type="bus_bus"/>
    <trip id="bus274" depart="1128.37" departLane="best" from="307556944#0" to="-24996349#0" type="bus_bus"/>
    <trip id="bus276" depart="1136.61" departLane="best" from="5113254" to="23179673#2" type="bus_bus"/>
    <trip id="bus277" depart="1140.73" departLane="best" from="188228381#0" to="188015317" type="bus_bus"/>
    <trip id="bus278" depart="1144.84" departLane="best" departSpeed="max" from="-349349451" to="-146276277#2" type="bus_bus"/>
    <trip id="bus279" depart="1148.96" departLane="best" from="609032935" to="190465775#1" type="bus_bus"/>
    <trip id="bus280" depart="1153.08" departLane="best" from="460787688#2" to="152176399#2" type="bus_bus"/>
    <trip id="bus282" depart="1161.32" departLane="best" departSpeed="max" from="-143586308#4" to="-26623996#1" type="bus_bus"/>
    <trip id="bus283" depart="1165.44" departLane="best" from="9780341#0" to="-23201239#1" type="bus_bus"/>
    <trip id="bus284" depart="1169.55" departLane="best" from="400216393#0" to="245296561#1" type="bus_bus"/>
    <trip id="bus285" depart="1173.67" departLane="best" from="431576781#1" to="-5113251#0" type="bus_bus"/>
    <trip id="bus286" depart="1177.79" departLane="best" from="190601549" to="188228389" type="bus_bus"/>
    <trip id="bus287" depart="1181.91" departLane="best" from="8505182" to="141137045#4" type="bus_bus"/>
    <trip id="bus288" depart="1186.03" departLane="best" from="240515083" to="249741911#1" type="bus_bus"/>
    <trip id="bus289" depart="1190.14" departLane="best" from="333902145#3" to="645284559#2" type="bus_bus"/>
    <trip id="bus290" depart="1194.26" departLane="best" departSpeed="max" from="25503166#0" to="-307541272#1" type="bus_bus"/>
    <trip id="bus291" depart="1198.38" departLane="best" from="-333890926" to="-188791146#2" type="bus_bus"/>
    <trip id="bus292" depart="1202.50" departLane="best" departSpeed="max" from="-121711407" to="188228389" type="bus_bus"/>
    <trip id="bus293" depart="1206.62" departLane="best" departSpeed="max" from="-46102597" to="331478129#3" type="bus_bus"/>
    <trip id="bus295" depart="1214.85" departLane="best" from="3042236#2" to="60578531#1" type="bus_bus"/>
    <trip id="bus296" depart="1218.97" departLane="best" from="43145613#1" to="25502117" type="bus_bus"/>
    <trip id="bus298" depart="1227.21" departLane="best" departSpeed="max" from="25501626" to="554713073" type="bus_bus"/>
    <trip id="bus299" depart="1231.33" departLane="best" from="463057018" to="-188476880#0" type="bus_bus"/>
    <trip id="bus300" depart="1235.44" departLane="best" from="-31027838#3" to="141137046#3" type="bus_bus"/>
    <trip id="bus301" depart="1239.56" departLane="best" from="368267186#1" to="23165593#2" type="bus_bus"/>
    <trip id="bus302" depart="1243.68" departLane="best" from="-662506168#0" to="-23774300#1" type="bus_bus"/>
    <trip id="bus303" depart="1247.80" departLane="best" from="3042236#5" to="331478122#1" type="bus_bus"/>
    <trip id="bus304" depart="1251.92" departLane="best" from="625856813#0" to="190581798#1" type="bus_bus"/>
    <trip id="bus305" depart="1256.03" departLane="best" from="190465775#0" to="-190465817#2" type="bus_bus"/>
    <trip id="bus306" depart="1260.15" departLane="best" departSpeed="max" from="-142704128#1" to="179060068" type="bus_bus"/>
    <trip id="bus307" depart="1264.27" departLane="best" from="123342665#3" to="-607492167" type="bus_bus"/>
    <trip id="bus308" depart="1268.39" departLane="best" from="-190417294#0" to="646033701" type="bus_bus"/>
    <trip id="bus309" depart="1272.51" departLane="best" from="463929523#0" to="23179673#2" type="bus_bus"/>
    <trip id="bus310" depart="1276.63" departLane="best" from="637815817#3" to="9783228" type="bus_bus"/>
    <trip id="bus312" depart="1284.86" departLane="best" departSpeed="max" from="-142704128#1" to="40154352#2" type="bus_bus"/>
    <trip id="bus313" depart="1288.98" departLane="best" from="188228383" to="26949920" type="bus_bus"/>