<?xml version="1.0" encoding="UTF-8"?>
<!-- generated on 2019-02-06 15:52:15.910817 by $Id$
  options: 
-->
<routes xmlns:xsi="http://www.w3.org/2001/XMLSchema-instance" xsi:noNamespaceSchemaLocation="http://sumo.dlr.de/xsd/routes_file.xsd">
    <vType id="ped_pedestrian" vClass="pedestrian"/>
    <person id="ped0" depart="0.00" type="ped_pedestrian">
        <walk from="154779948" to="121708066#2"/>
    </person>
    <person id="ped1" depart="1.04" type="ped_pedestrian">
        <walk from="45768159" to="419279952"/>
    </person>
    <person id="ped2" depart="2.07" type="ped_pedestrian">
        <walk from="604471807" to="-3042236#2"/>
    </person>
    <person id="ped3" depart="3.11" type="ped_pedestrian">
        <walk from="119390895#13" to="32958550"/>
    </person>
    <person id="ped4" depart="4.14" type="ped_pedestrian">
        <walk from="396577376#1" to="335355010#1"/>
    </person>
    <person id="ped5" depart="5.18" type="ped_pedestrian">
        <walk from="119390897" to="378918107#7"/>
    </person>
    <person id="ped6" depart="6.21" type="ped_pedestrian">
        <walk from="501691376#0" to="-119390895#19"/>
    </person>
    <person id="ped7" depart="7.25" type="ped_pedestrian">
        <walk from="188810427#2" to="-541386221#1"/>
    </person>
    <person id="ped8" depart="8.28" type="ped_pedestrian">
        <walk from="655255290#0" to="188228396"/>
    </person>
    <person id="ped9" depart="9.32" type="ped_pedestrian">
        <walk from="-32947385#1" to="-333396034#0"/>
    </person>
    <person id="ped10" depart="10.35" type="ped_pedestrian">
        <walk from="541386221#1" to="379587220#2"/>
    </person>
    <person id="ped11" depart="11.39" type="ped_pedestrian">
        <walk from="5009204#3" to="448939462#1"/>
    </person>
    <person id="ped12" depart="12.42" type="ped_pedestrian">
        <walk from="333878198" to="66997940"/>
    </person>
    <person id="ped13" depart="13.46" type="ped_pedestrian">
        <walk from="23197390#7" to="348251623#0"/>
    </person>
    <person id="ped14" depart="14.49" type="ped_pedestrian">
        <walk from="51260017#1" to="380398481#1"/>
    </person>
    <person id="ped15" depart="15.53" type="ped_pedestrian">
        <walk from="429129643#2" to="-174299056#4"/>
    </person>
    <person id="ped16" depart="16.57" type="ped_pedestrian">
        <walk from="-25400603" to="141137045#1"/>
    </person>
    <person id="ped17" depart="17.60" type="ped_pedestrian">
        <walk from="-333396061#2" to="161303905#0"/>
    </person>
    <person id="ped18" depart="18.64" type="ped_pedestrian">
        <walk from="381695043#0" to="22701043#0"/>
    </person>
    <person id="ped19" depart="19.67" type="ped_pedestrian">
        <walk from="23138318#1" to="111685055#8"/>
    </person>
    <person id="ped20" depart="20.71" type="ped_pedestrian">
        <walk from="150131327" to="646042391"/>
    </person>
    <person id="ped21" depart="21.74" type="ped_pedestrian">
        <walk from="395272650#1" to="380125235#21"/>
    </person>
    <person id="ped22" depart="22.78" type="ped_pedestrian">
        <walk from="-619735242" to="448939459"/>
    </person>
    <person id="ped23" depart="23.81" type="ped_pedestrian">
        <walk from="-598319283#3" to="23201239#3"/>
    </person>
    <person id="ped24" depart="24.85" type="ped_pedestrian">
        <walk from="356473024#3" to="426296756"/>
    </person>
    <person id="ped25" depart="25.88" type="ped_pedestrian">
        <walk from="525949279" to="47382068#0"/>
    </person>
    <person id="ped26" depart="26.92" type="ped_pedestrian">
        <walk from="135763188#0" to="-164050964"/>
    </person>
    <person id="ped27" depart="27.95" type="ped_pedestrian">
        <walk from="174299060" to="151163915#0"/>
    </person>
    <person id="ped28" depart="28.99" type="ped_pedestrian">
        <walk from="111685058" to="648880049#1"/>
    </person>
    <person id="ped29" depart="30.03" type="ped_pedestrian">
        <walk from="59464720#0" to="174299056#3"/>
    </person>
    <person id="ped30" depart="31.06" type="ped_pedestrian">
        <walk from="146481665#1" to="141809041#5"/>
    </person>
    <person id="ped31" depart="32.10" type="ped_pedestrian">
        <walk from="36268765" to="143586355#3"/>
    </person>
    <person id="ped32" depart="33.13" type="ped_pedestrian">
        <walk from="378906221#18" to="60578549"/>
    </person>
    <person id="ped33" depart="34.17" type="ped_pedestrian">
        <walk from="239483276#28" to="119390895#19"/>
    </person>
    <person id="ped34" depart="35.20" type="ped_pedestrian">
        <walk from="97662621" to="32958572#2"/>
    </person>
    <person id="ped35" depart="36.24" type="ped_pedestrian">
        <walk from="-31027838#3" to="-174299071#0"/>
    </person>
    <person id="ped36" depart="37.27" type="ped_pedestrian">
        <walk from="-335355018#0" to="380861655#7"/>
    </person>
    <person id="ped37" depart="38.31" type="ped_pedestrian">
        <walk from="489074728#1" to="24438742"/>
    </person>
    <person id="ped38" depart="39.34" type="ped_pedestrian">
        <walk from="9702436#2" to="333396059#0"/>
    </person>
    <person id="ped39" depart="40.38" type="ped_pedestrian">
        <walk from="-139787573" to="444652341#3"/>
    </person>
    <person id="ped40" depart="41.41" type="ped_pedestrian">
        <walk from="42048376#3" to="333878202"/>
    </person>
    <person id="ped41" depart="42.45" type="ped_pedestrian">
        <walk from="149400022#1" to="382497464#17"/>
    </person>
    <person id="ped42" depart="43.48" type="ped_pedestrian">
        <walk from="266343812#2" to="654882864"/>
    </person>
    <person id="ped43" depart="44.52" type="ped_pedestrian">
        <walk from="59420172" to="144870968#0"/>
    </person>
    <person id="ped44" depart="45.56" type="ped_pedestrian">
        <walk from="326908351#2" to="-646042384#0"/>
    </person>
    <person id="ped45" depart="46.59" type="ped_pedestrian">
        <walk from="630267129" to="584225669#5"/>
    </person>
    <person id="ped46" depart="47.63" type="ped_pedestrian">
        <walk from="164050988" to="382497463#4"/>
    </person>
    <person id="ped47" depart="48.66" type="ped_pedestrian">
        <walk from="465869033#8" to="333891058#0"/>
    </person>
    <person id="ped48" depart="49.70" type="ped_pedestrian">
        <walk from="476148171" to="333396061#1"/>
    </person>
    <person id="ped49" depart="50.73" type="ped_pedestrian">
        <walk from="-102693227#0" to="181020235"/>
    </person>
    <person id="ped50" depart="51.77" type="ped_pedestrian">
        <walk from="-295931067#0" to="309966578#0"/>
    </person>
    <person id="ped51" depart="52.80" type="ped_pedestrian">
        <walk from="-23197390#1" to="465869032#4"/>
    </person>
    <person id="ped52" depart="53.84" type="ped_pedestrian">
        <walk from="466451527#7" to="-428641679#1"/>
    </person>
    <person id="ped53" depart="54.87" type="ped_pedestrian">
        <walk from="3042236#5" to="346987716#1"/>
    </person>
    <person id="ped54" depart="55.91" type="ped_pedestrian">
        <walk from="146481665#2" to="584225680#8"/>
    </person>
    <person id="ped55" depart="56.94" type="ped_pedestrian">
        <walk from="24452362#1" to="111747607#3"/>
    </person>
    <person id="ped56" depart="57.98" type="ped_pedestrian">
        <walk from="333891058#0" to="448979127#0"/>
    </person>
    <person id="ped57" depart="59.01" type="ped_pedestrian">
        <walk from="102693227#1" to="171526834#4"/>
    </person>
    <person id="ped58" depart="60.05" type="ped_pedestrian">
        <walk from="96225084#0" to="396577376#1"/>
    </person>
    <person id="ped59" depart="61.09" type="ped_pedestrian">
        <walk from="188476880#2" to="378918107#1"/>
    </person>
    <person id="ped60" depart="62.12" type="ped_pedestrian">
        <walk from="139776357#2" to="119390895#8"/>
    </person>
    <person id="ped61" depart="63.16" type="ped_pedestrian">
        <walk from="-23197390#5" to="381525481#1"/>
    </person>
    <person id="ped62" depart="64.19" type="ped_pedestrian">
        <walk from="135763188#0" to="609389081#1"/>
    </person>
    <person id="ped63" depart="65.23" type="ped_pedestrian">
        <walk from="566274277" to="-23197390#4"/>
    </person>
    <person id="ped64" depart="66.26" type="ped_pedestrian">
        <walk from="141179036#2" to="418958290"/>
    </person>
    <person id="ped65" depart="67.30" type="ped_pedestrian">
        <walk from="112654725" to="-439188294"/>
    </person>
    <person id="ped66" depart="68.33" type="ped_pedestrian">
        <walk from="646042384#2" to="369066507#4"/>
    </person>
    <person id="ped67" depart="69.37" type="ped_pedestrian">
        <walk from="295931067#0" to="484960167#1"/>
    </person>
    <person id="ped68" depart="70.40" type="ped_pedestrian">
        <walk from="-333396034#1" to="24996349#3"/>
    </person>
    <person id="ped69" depart="71.44" type="ped_pedestrian">
        <walk from="245296561#1" to="292604385#1"/>
    </person>
    <person id="ped70" depart="72.47" type="ped_pedestrian">
        <walk from="448939459" to="419258387"/>
    </person>
    <person id="ped71" depart="73.51" type="ped_pedestrian">
        <walk from="83075263" to="-333396052#0"/>
    </person>
    <person id="ped72" depart="74.55" type="ped_pedestrian">
        <walk from="239486517#3" to="188791146#0"/>
    </person>
    <person id="ped73" depart="75.58" type="ped_pedestrian">
        <walk from="575571504" to="141809043#2"/>
    </person>
    <person id="ped74" depart="76.62" type="ped_pedestrian">
        <walk from="141873961" to="631122144#2"/>
    </person>
    <person id="ped75" depart="77.65" type="ped_pedestrian">
        <walk from="25610297" to="573674830#4"/>
    </person>
    <person id="ped76" depart="78.69" type="ped_pedestrian">
        <walk from="346987719#2" to="-181020239"/>
    </person>
    <person id="ped77" depart="79.72" type="ped_pedestrian">
        <walk from="551966693#1" to="-60578510#1"/>
    </person>
    <person id="ped78" depart="80.76" type="ped_pedestrian">
        <walk from="309966577#6" to="112185506#8"/>
    </person>
    <person id="ped79" depart="81.79" type="ped_pedestrian">
        <walk from="239483276#8" to="-190465817#5"/>
    </person>
    <person id="ped80" depart="82.83" type="ped_pedestrian">
        <walk from="26773464#4" to="24452362#1"/>
    </person>
    <person id="ped81" depart="83.86" type="ped_pedestrian">
        <walk from="655255290#2" to="96225084#1"/>
    </person>
    <person id="ped82" depart="84.90" type="ped_pedestrian">
        <walk from="355309978" to="444651040#0"/>
    </person>
    <person id="ped83" depart="85.93" type="ped_pedestrian">
        <walk from="-53721850" to="164050978"/>
    </person>
    <person id="ped84" depart="86.97" type="ped_pedestrian">
        <walk from="333902145#2" to="463057024#2"/>
    </person>
    <person id="ped85" depart="88.00" type="ped_pedestrian">
        <walk from="-190465775#1" to="378906221#16"/>
    </person>
    <person id="ped86" depart="89.04" type="ped_pedestrian">
        <walk from="327109845#0" to="551966720#14"/>
    </person>
    <person id="ped87" depart="90.08" type="ped_pedestrian">
        <walk from="-567513654" to="655978966"/>
    </person>
    <person id="ped88" depart="91.11" type="ped_pedestrian">
        <walk from="-25485633#1" to="-656676187#9"/>
    </person>
    <person id="ped89" depart="92.15" type="ped_pedestrian">
        <walk from="379471191" to="419279938#1"/>
    </person>
    <person id="ped90" depart="93.18" type="ped_pedestrian">
        <walk from="141179035#12" to="-39972604#1"/>
    </person>
    <person id="ped91" depart="94.22" type="ped_pedestrian">
        <walk from="24410013" to="378906221#13"/>
    </person>
    <person id="ped92" depart="95.25" type="ped_pedestrian">
        <walk from="333396029#0" to="646042380#1"/>
    </person>
    <person id="ped93" depart="96.29" type="ped_pedestrian">
        <walk from="111486679#0" to="444651033#1"/>
    </person>
    <person id="ped94" depart="97.32" type="ped_pedestrian">
        <walk from="418958339#0" to="164050995#2"/>
    </person>
    <person id="ped95" depart="98.36" type="ped_pedestrian">
        <walk from="174299063#1" to="463670229#2"/>
    </person>
    <person id="ped96" depart="99.39" type="ped_pedestrian">
        <walk from="-23201239#4" to="26812638"/>
    </person>
    <person id="ped97" depart="100.43" type="ped_pedestrian">
        <walk from="9780341#0" to="9702436#2"/>
    </person>
    <person id="ped98" depart="101.46" type="ped_pedestrian">
        <walk from="146481665#3" to="646042376#0"/>
    </person>
    <person id="ped99" depart="102.50" type="ped_pedestrian">
        <walk from="598319266" to="59559695#1"/>
    </person>
    <person id="ped100" depart="103.54" type="ped_pedestrian">
        <walk from="23129765#0" to="-570009191"/>
    </person>
    <person id="ped101" depart="104.57" type="ped_pedestrian">
        <walk from="380125235#34" to="83076518"/>
    </person>
    <person id="ped102" depart="105.61" type="ped_pedestrian">
        <walk from="40287250#0" to="-119395907#0"/>
    </person>
    <person id="ped103" depart="106.64" type="ped_pedestrian">
        <walk from="512296473#4" to="164050993"/>
    </person>
    <person id="ped104" depart="107.68" type="ped_pedestrian">
        <walk from="-454527872#3" to="-369968786"/>
    </person>
    <person id="ped105" depart="108.71" type="ped_pedestrian">
        <walk from="-333878205#1" to="349349451"/>
    </person>
    <person id="ped106" depart="109.75" type="ped_pedestrian">
        <walk from="152813991#2" to="379587220#25"/>
    </person>
    <person id="ped107" depart="110.78" type="ped_pedestrian">
        <walk from="444651035#7" to="10577351"/>
    </person>
    <person id="ped108" depart="111.82" type="ped_pedestrian">
        <walk from="31023169#1" to="609389081#0"/>
    </person>
    <person id="ped109" depart="112.85" type="ped_pedestrian">
        <walk from="53436293" to="-32467905#2"/>
    </person>
    <person id="ped110" depart="113.89" type="ped_pedestrian">
        <walk from="245296561#1" to="159189973#1"/>
    </person>
    <person id="ped111" depart="114.92" type="ped_pedestrian">
        <walk from="-114423873" to="466458592#1"/>
    </person>
    <person id="ped112" depart="115.96" type="ped_pedestrian">
        <walk from="382497462#2" to="143586350#1"/>
    </person>
    <person id="ped113" depart="116.99" type="ped_pedestrian">
        <walk from="45846292" to="347990432#1"/>
    </person>
    <person id="ped114" depart="118.03" type="ped_pedestrian">
        <walk from="24755012#2" to="-129806245"/>
    </person>
    <person id="ped115" depart="119.07" type="ped_pedestrian">
        <walk from="-245823595#0" to="598319283#4"/>
    </person>
    <person id="ped116" depart="120.10" type="ped_pedestrian">
        <walk from="609026210#1" to="335355014"/>
    </person>
    <person id="ped117" depart="121.14" type="ped_pedestrian">
        <walk from="-501691376#0" to="-421606678"/>
    </person>
    <person id="ped118" depart="122.17" type="ped_pedestrian">
        <walk from="169955135#1" to="60578578#1"/>
    </person>
    <person id="ped119" depart="123.21" type="ped_pedestrian">
        <walk from="489074736" to="573674830#1"/>
    </person>
    <person id="ped120" depart="124.24" type="ped_pedestrian">
        <walk from="60578578#1" to="111685056#3"/>
    </person>
    <person id="ped121" depart="125.28" type="ped_pedestrian">
        <walk from="141873960#1" to="-333396487#2"/>
    </person>
    <person id="ped122" depart="126.31" type="ped_pedestrian">
        <walk from="476148176" to="598476272"/>
    </person>
    <person id="ped123" depart="127.35" type="ped_pedestrian">
        <walk from="240286628#0" to="380861653#0"/>
    </person>
    <person id="ped124" depart="128.38" type="ped_pedestrian">
        <walk from="507950425" to="598319275"/>
    </person>
    <person id="ped125" depart="129.42" type="ped_pedestrian">
        <walk from="-146276277#2" to="45778283"/>
    </person>
    <person id="ped126" depart="130.45" type="ped_pedestrian">
        <walk from="490163096#2" to="576410787"/>
    </person>
    <person id="ped127" depart="131.49" type="ped_pedestrian">
        <walk from="488641517#1" to="-333902145#2"/>
    </person>
    <person id="ped128" depart="132.52" type="ped_pedestrian">
        <walk from="584225680#7" to="560804532#0"/>
    </person>
    <person id="ped129" depart="133.56" type="ped_pedestrian">
        <walk from="121708051#3" to="512296473#1"/>
    </person>
    <person id="ped130" depart="134.60" type="ped_pedestrian">
        <walk from="26839255#3" to="164051566"/>
    </person>
    <person id="ped131" depart="135.63" type="ped_pedestrian">
        <walk from="489074732#7" to="129806245"/>
    </person>
    <person id="ped132" depart="136.67" type="ped_pedestrian">
        <walk from="-143586355#1" to="-83607849"/>
    </person>
    <person id="ped133" depart="137.70" type="ped_pedestrian">
        <walk from="656700284#0" to="161905132"/>
    </person>
    <person id="ped134" depart="138.74" type="ped_pedestrian">
        <walk from="382497464#4" to="239483276#3"/>
    </person>
    <person id="ped135" depart="139.77" type="ped_pedestrian">
        <walk from="81198458" to="333878198"/>
    </person>
    <person id="ped136" depart="140.81" type="ped_pedestrian">
        <walk from="64648394#1" to="-369968786"/>
    </person>
    <person id="ped137" depart="141.84" type="ped_pedestrian">
        <walk from="-333902145#4" to="25485694"/>
    </person>
    <person id="ped138" depart="142.88" type="ped_pedestrian">
        <walk from="448680456#4" to="174299053#5"/>
    </person>
    <person id="ped139" depart="143.91" type="ped_pedestrian">
        <walk from="379587220#9" to="330194550#2"/>
    </person>
    <person id="ped140" depart="144.95" type="ped_pedestrian">
        <walk from="234048543" to="369567404#11"/>
    </person>
    <person id="ped141" depart="145.98" type="ped_pedestrian">
        <walk from="-102693251" to="631613583#0"/>
    </person>
    <person id="ped142" depart="147.02" type="ped_pedestrian">
        <walk from="333891046" to="444651040#6"/>
    </person>
    <person id="ped143" depart="148.06" type="ped_pedestrian">
        <walk from="458542845#0" to="418958320"/>
    </person>
    <person id="ped144" depart="149.09" type="ped_pedestrian">
        <walk from="220387891#1" to="-23197390#14"/>
    </person>
    <person id="ped145" depart="150.13" type="ped_pedestrian">
        <walk from="407465338#0" to="185143002"/>
    </person>
    <person id="ped146" depart="151.16" type="ped_pedestrian">
        <walk from="174299055#0" to="551502566#0"/>
    </person>
    <person id="ped147" depart="152.20" type="ped_pedestrian">
        <walk from="444652340#0" to="164050996#0"/>
    </person>
    <person id="ped148" depart="153.23" type="ped_pedestrian">
        <walk from="171523718" to="240286628#5"/>
    </person>
    <person id="ped149" depart="154.27" type="ped_pedestrian">
        <walk from="239486517#2" to="164050971"/>
    </person>
    <person id="ped150" depart="155.30" type="ped_pedestrian">
        <walk from="648880038#1" to="419410840"/>
    </person>
    <person id="ped151" depart="156.34" type="ped_pedestrian">
        <walk from="164050996#14" to="343691248#0"/>
    </person>
    <person id="ped152" depart="157.37" type="ped_pedestrian">
        <walk from="25505536#4" to="112185506#8"/>
    </person>
    <person id="ped153" depart="158.41" type="ped_pedestrian">
        <walk from="295931067#2" to="606450752#2"/>
    </person>
    <person id="ped154" depart="159.44" type="ped_pedestrian">
        <walk from="-26623996#1" to="331478122#2"/>
    </person>
    <person id="ped155" depart="160.48" type="ped_pedestrian">
        <walk from="381547097#5" to="188228394#0"/>
    </person>
    <person id="ped156" depart="161.51" type="ped_pedestrian">
        <walk from="512296477#3" to="463670228#4"/>
    </person>
    <person id="ped157" depart="162.55" type="ped_pedestrian">
        <walk from="418958346#1" to="123342665#1"/>
    </person>
    <person id="ped158" depart="163.59" type="ped_pedestrian">
        <walk from="-97662628#1" to="-143586355#5"/>
    </person>
    <person id="ped159" depart="164.62" type="ped_pedestrian">
        <walk from="141809037#0" to="3042236#3"/>
    </person>
    <person id="ped160" depart="165.66" type="ped_pedestrian">
        <walk from="551966701#1" to="-232103864#0"/>
    </person>
    <person id="ped161" depart="166.69" type="ped_pedestrian">
        <walk from="240286633#4" to="381525480#3"/>
    </person>
    <person id="ped162" depart="167.73" type="ped_pedestrian">
        <walk from="-8505168#1" to="427757069"/>
    </person>
    <person id="ped163" depart="168.76" type="ped_pedestrian">
        <walk from="315771482" to="141809032#0"/>
    </person>
    <person id="ped164" depart="169.80" type="ped_pedestrian">
        <walk from="407193793#1" to="-119390895#10"/>
    </person>
    <person id="ped165" depart="170.83" type="ped_pedestrian">
        <walk from="463670228#3" to="466458589#5"/>
    </person>
    <person id="ped166" depart="171.87" type="ped_pedestrian">
        <walk from="-333878203#0" to="245823596#1"/>
    </person>
    <person id="ped167" depart="172.90" type="ped_pedestrian">
        <walk from="-645284561#2" to="655257334#0"/>
    </person>
    <person id="ped168" depart="173.94" type="ped_pedestrian">
        <walk from="141809043#4" to="551966692"/>
    </person>
    <person id="ped169" depart="174.97" type="ped_pedestrian">
        <walk from="416448805" to="83607566"/>
    </person>
    <person id="ped170" depart="176.01" type="ped_pedestrian">
        <walk from="379471196#1" to="653768835#0"/>
    </person>
    <person id="ped171" depart="177.04" type="ped_pedestrian">
        <walk from="60058128#8" to="380125235#7"/>
    </person>
    <person id="ped172" depart="178.08" type="ped_pedestrian">
        <walk from="444651040#5" to="32947389"/>
    </person>
    <person id="ped173" depart="179.12" type="ped_pedestrian">
        <walk from="516884619" to="343691248#0"/>
    </person>
    <person id="ped174" depart="180.15" type="ped_pedestrian">
        <walk from="30412261" to="143586280#2"/>
    </person>
    <person id="ped175" depart="181.19" type="ped_pedestrian">
        <walk from="466451527#7" to="333393247#2"/>
    </person>
    <person id="ped176" depart="182.22" type="ped_pedestrian">
        <walk from="380861655#3" to="153995180#2"/>
    </person>
    <person id="ped177" depart="183.26" type="ped_pedestrian">
        <walk from="152813979#3" to="174299075"/>
    </person>
    <person id="ped178" depart="184.29" type="ped_pedestrian">
        <walk from="333891062#0" to="-460787688#3"/>
    </person>
    <person id="ped179" depart="185.33" type="ped_pedestrian">
        <walk from="43145612#1" to="-217558032"/>
    </person>
    <person id="ped180" depart="186.36" type="ped_pedestrian">
        <walk from="244270738#0" to="609032935"/>
    </person>
    <person id="ped181" depart="187.40" type="ped_pedestrian">
        <walk from="378906221#15" to="42772472"/>
    </person>
    <person id="ped182" depart="188.43" type="ped_pedestrian">
        <walk from="23201600#0" to="-119390895#14"/>
    </person>
    <person id="ped183" depart="189.47" type="ped_pedestrian">
        <walk from="193847534#1" to="463671346#1"/>
    </person>
    <person id="ped184" depart="190.50" type="ped_pedestrian">
        <walk from="551966721" to="654708414"/>
    </person>
    <person id="ped185" depart="191.54" type="ped_pedestrian">
        <walk from="24409013#1" to="463057022#4"/>
    </person>
    <person id="ped186" depart="192.58" type="ped_pedestrian">
        <walk from="335355017#1" to="379587220#15"/>
    </person>
    <person id="ped187" depart="193.61" type="ped_pedestrian">
        <walk from="119390897" to="119390895#19"/>
    </person>
    <person id="ped188" depart="194.65" type="ped_pedestrian">
        <walk from="25501955#0" to="-16091890#0"/>
    </person>
    <person id="ped189" depart="195.68" type="ped_pedestrian">
        <walk from="188228395#2" to="419410850"/>
    </person>
    <person id="ped190" depart="196.72" type="ped_pedestrian">
        <walk from="240286622#2" to="-60045767#4"/>
    </person>
    <person id="ped191" depart="197.75" type="ped_pedestrian">
        <walk from="292604385#3" to="-425050767#0"/>
    </person>
    <person id="ped192" depart="198.79" type="ped_pedestrian">
        <walk from="380861653#8" to="-151163919#1"/>
    </person>
    <person id="ped193" depart="199.82" type="ped_pedestrian">
        <walk from="239479769#0" to="364295181"/>
    </person>
    <person id="ped194" depart="200.86" type="ped_pedestrian">
        <walk from="-45748887#1" to="271168045#2"/>
    </person>
    <person id="ped195" depart="201.89" type="ped_pedestrian">
        <walk from="-181020238" to="23201239#0"/>
    </person>
    <person id="ped196" depart="202.93" type="ped_pedestrian">
        <walk from="111747607#2" to="182248232"/>
    </person>
    <person id="ped197" depart="203.96" type="ped_pedestrian">
        <walk from="463670230" to="516884630"/>
    </person>
    <person id="ped198" depart="205.00" type="ped_pedestrian">
        <walk from="-141873960#0" to="333891058#1"/>
    </person>
    <person id="ped199" depart="206.03" type="ped_pedestrian">
        <walk from="9897177" to="193660863#1"/>
    </person>
    <person id="ped200" depart="207.07" type="ped_pedestrian">
        <walk from="396577376#2" to="478834382#0"/>
    </person>
    <person id="ped201" depart="208.11" type="ped_pedestrian">
        <walk from="400216393#1" to="463671348#2"/>
    </person>
    <person id="ped202" depart="209.14" type="ped_pedestrian">
        <walk from="-42048398#4" to="418958299"/>
    </person>
    <person id="ped203" depart="210.18" type="ped_pedestrian">
        <walk from="428817400#1" to="466458587#16"/>
    </person>
    <person id="ped204" depart="211.21" type="ped_pedestrian">
        <walk from="-606439165" to="380125235#12"/>
    </person>
    <person id="ped205" depart="212.25" type="ped_pedestrian">
        <walk from="463057024#2" to="-361916999"/>
    </person>
    <person id="ped206" depart="213.28" type="ped_pedestrian">
        <walk from="512296478#2" to="656676187#4"/>
    </person>
    <person id="ped207" depart="214.32" type="ped_pedestrian">
        <walk from="-333902145#2" to="-146482573#2"/>
    </person>
    <person id="ped208" depart="215.35" type="ped_pedestrian">
        <walk from="171526834#5" to="419410840"/>
    </person>
    <person id="ped209" depart="216.39" type="ped_pedestrian">
        <walk from="655257334#1" to="239483273"/>
    </person>
    <person id="ped210" depart="217.42" type="ped_pedestrian">
        <walk from="444651030#2" to="-245823596#2"/>
    </person>
    <person id="ped211" depart="218.46" type="ped_pedestrian">
        <walk from="426518443" to="380861655#6"/>
    </person>
    <person id="ped212" depart="219.49" type="ped_pedestrian">
        <walk from="-333396485#2" to="466616429"/>
    </person>
    <person id="ped213" depart="220.53" type="ped_pedestrian">
        <walk from="551966702#0" to="379472619#11"/>
    </person>
    <person id="ped214" depart="221.56" type="ped_pedestrian">
        <walk from="24796071" to="23159360#3"/>
    </person>
    <person id="ped215" depart="222.60" type="ped_pedestrian">
        <walk from="32958555" to="190417294#0"/>
    </person>
    <person id="ped216" depart="223.64" type="ped_pedestrian">
        <walk from="551966699" to="512296485#4"/>
    </person>
    <person id="ped217" depart="224.67" type="ped_pedestrian">
        <walk from="381695043#0" to="51260011#1"/>
    </person>
    <person id="ped218" depart="225.71" type="ped_pedestrian">
        <walk from="45519022#1" to="656676187#8"/>
    </person>
    <person id="ped219" depart="226.74" type="ped_pedestrian">
        <walk from="152176404#1" to="501691371#4"/>
    </person>
    <person id="ped220" depart="227.78" type="ped_pedestrian">
        <walk from="333890926" to="309966570#2"/>
    </person>
    <person id="ped221" depart="228.81" type="ped_pedestrian">
        <walk from="25501912#0" to="45136321"/>
    </person>
    <person id="ped222" depart="229.85" type="ped_pedestrian">
        <walk from="151233859#1" to="551966720#0"/>
    </person>
    <person id="ped223" depart="230.88" type="ped_pedestrian">
        <walk from="516884619" to="-30372441"/>
    </person>
    <person id="ped224" depart="231.92" type="ped_pedestrian">
        <walk from="598319278#0" to="141809031#1"/>
    </person>
    <person id="ped225" depart="232.95" type="ped_pedestrian">
        <walk from="286900171#1" to="380125235#28"/>
    </person>
    <person id="ped226" depart="233.99" type="ped_pedestrian">
        <walk from="551966706" to="-653756256"/>
    </person>
    <person id="ped227" depart="235.02" type="ped_pedestrian">
        <walk from="111747607#4" to="489661970#2"/>
    </person>
    <person id="ped228" depart="236.06" type="ped_pedestrian">
        <walk from="428908184#3" to="157109027#0"/>
    </person>
    <person id="ped229" depart="237.10" type="ped_pedestrian">
        <walk from="-131675656#0" to="653756259#0"/>
    </person>
    <person id="ped230" depart="238.13" type="ped_pedestrian">
        <walk from="-295931067#0" to="444652340#2"/>
    </person>
    <person id="ped231" depart="239.17" type="ped_pedestrian">
        <walk from="31023169#1" to="464431266#9"/>
    </person>
    <person id="ped232" depart="240.20" type="ped_pedestrian">
        <walk from="426518443" to="38571383"/>
    </person>
    <person id="ped233" depart="241.24" type="ped_pedestrian">